Using logfiles ['/home/min/a/devlinc/Documents/ECE60827/hardware-sim-assgn-2/hardware-simulation-assignment-2-texashodlr/util/job_launching/../job_launching/logfiles/sim_log.sass-run.25.03.27-Thursday.txt']
procman.id	Node                          	App                 	AppArgs             	Version             	Config    	RunningTime    	Mem   	JobStatus                     	Basic GPGPU-Sim Stats                             	
-----------------------------------------------------------------------------------------------------------------------------------------------------------------------------------------------------------------------------
162       	UNKNOWN                       	bfs-rodinia-3.1     	__data_graph1MW_6_tx	bfs-rodinia-3.1.acce	QV100-SASS	UNKNOWN        	UNKNOWN	SEGF                          	                                                  	
163       	UNKNOWN                       	bfs-rodinia-3.1     	__data_graph1MW_6_tx	bfs-rodinia-3.1.acce	QV100-SASS	UNKNOWN        	UNKNOWN	SEGF                          	                                                  	
164       	qstruct.ecn.purdue.edu        	bfs-rodinia-3.1     	__data_graph1MW_6_tx	bfs-rodinia-3.1.acce	QV100-SASS	0:01:01        	2 B   	RUNNING                       	                                                  	
-----------------------------------------------------------------------------------------------------------------------------------------------------------------------------------------------------------------------------
failed job log written to /home/min/a/devlinc/Documents/ECE60827/hardware-sim-assgn-2/hardware-simulation-assignment-2-texashodlr/util/job_launching/../job_launching/logfiles/failed_job_log_sim_log.sass-run.25.03.27-Thursday.txt
