Using logfiles ['/home/min/a/devlinc/Documents/ECE60827/hardware-sim-assgn-2/hardware-simulation-assignment-2-texashodlr/util/job_launching/../job_launching/logfiles/sim_log.sass-run.25.03.27-Thursday.txt']
procman.id	Node                          	App                 	AppArgs             	Version             	Config    	RunningTime    	Mem   	JobStatus                     	Basic GPGPU-Sim Stats                             	
-----------------------------------------------------------------------------------------------------------------------------------------------------------------------------------------------------------------------------
151       	UNKNOWN                       	b+tree-rodinia-3.1  	file___data_mil_txt_	b+tree-rodinia-3.1.a	QV100-SASS	UNKNOWN        	UNKNOWN	COMPLETE_NO_OTHER_INFO        	SIMRATE_IPS=78 K	SIM_TIME=2 min, 9 sec (129 sec)	TOT_IPC=1 K	TOT_INSN=10 M	TOT_CYCLE=8 K	
152       	UNKNOWN                       	backprop-rodinia-3.1	65536               	backprop-rodinia-3.1	QV100-SASS	UNKNOWN        	UNKNOWN	COMPLETE_NO_OTHER_INFO        	SIMRATE_IPS=149 K	SIM_TIME=1 min, 7 sec (67 sec)  	
153       	UNKNOWN                       	bfs-rodinia-3.1     	__data_graph1MW_6_tx	bfs-rodinia-3.1.acce	QV100-SASS	UNKNOWN        	UNKNOWN	SEGF                          	                                                  	
154       	UNKNOWN                       	gaussian-rodinia-3.1	_f___data_matrix208_	gaussian-rodinia-3.1	QV100-SASS	UNKNOWN        	UNKNOWN	SEGF                          	                                                  	
155       	UNKNOWN                       	hotspot-rodinia-3.1 	1024_2_2___data_temp	hotspot-rodinia-3.1.	QV100-SASS	UNKNOWN        	UNKNOWN	COMPLETE_NO_OTHER_INFO        	SIMRATE_IPS=98 K	SIM_TIME=1 min, 42 sec (102 sec) 	
156       	UNKNOWN                       	lud-rodinia-3.1     	_s_256__v           	lud-rodinia-3.1.acce	QV100-SASS	UNKNOWN        	UNKNOWN	SEGF                          	                                                  	
157       	UNKNOWN                       	myocyte-rodinia-3.1 	100_1_0             	myocyte-rodinia-3.1.	QV100-SASS	UNKNOWN        	UNKNOWN	SEGF                          	                                                  	
158       	UNKNOWN                       	nn-rodinia-3.1      	__data_filelist_4__r	nn-rodinia-3.1.accel	QV100-SASS	UNKNOWN        	UNKNOWN	SEGF                          	                                                  	
159       	UNKNOWN                       	nw-rodinia-3.1      	2048_10             	nw-rodinia-3.1.accel	QV100-SASS	UNKNOWN        	UNKNOWN	SEGF                          	                                                  	
160       	UNKNOWN                       	srad_v1-rodinia-3.1 	100_0_5_502_458     	srad_v1-rodinia-3.1.	QV100-SASS	UNKNOWN        	UNKNOWN	SEGF                          	                                                  	
161       	qstruct.ecn.purdue.edu        	b+tree-rodinia-3.1  	file___data_mil_txt_	b+tree-rodinia-3.1.a	QV100-SASS	              0	0     	RUNNING                       	                                                  	
-----------------------------------------------------------------------------------------------------------------------------------------------------------------------------------------------------------------------------
failed job log written to /home/min/a/devlinc/Documents/ECE60827/hardware-sim-assgn-2/hardware-simulation-assignment-2-texashodlr/util/job_launching/../job_launching/logfiles/failed_job_log_sim_log.sass-run.25.03.27-Thursday.txt
