Skipping setup_environment - already set
doing: export -n PTX_SIM_USE_PTX_FILE
doing: export LD_LIBRARY_PATH=/home/min/a/devlinc/Documents/ECE60827/hardware-sim-assgn-2/hardware-simulation-assignment-2-texashodlr/util/job_launching/../../sim_run_9.1/gpgpu-sim-builds/gpgpu-sim_git-commit-a5339f56558d282e0ff48181156f07c28d32c1b6_modified_0.0:/home/min/a/devlinc/Documents/ECE60827/hardware-sim-assgn-2/hardware-simulation-assignment-2-texashodlr/gpu-simulator/gpgpu-sim/lib/gcc-8.3.0/cuda-9010/release:/home/min/a/devlinc/Documents/ECE60827/hardware-sim-assgn-2/hardware-simulation-assignment-2-texashodlr/gpu-simulator/gpgpu-sim/lib/gcc-8.3.0/cuda-9010/release:/package/gcc/8.3.0/lib64:
doing: cd /home/min/a/devlinc/Documents/ECE60827/hardware-sim-assgn-2/hardware-simulation-assignment-2-texashodlr/util/job_launching/../../sim_run_9.1/b+tree-rodinia-3.1/file___data_mil_txt_command___data_command_txt/QV100-PTX-1B_INSN-8CLUSTER
doing: export OPENCL_CURRENT_TEST_PATH=/home/min/a/devlinc/Documents/ECE60827/hardware-sim-assgn-2/hardware-simulation-assignment-2-texashodlr/util/job_launching/../../sim_run_9.1/b+tree-rodinia-3.1/file___data_mil_txt_command___data_command_txt/QV100-PTX-1B_INSN-8CLUSTER
doing: export OPENCL_REMOTE_GPU_HOST=REPLACE_REMOTE_HOST
doing 
doing: export PATH=/home/min/a/devlinc/Documents/ECE60827/hardware-sim-assgn-2/hardware-simulation-assignment-2-texashodlr/gpu-simulator/gpgpu-sim/bin:/home/min/a/ee695paa/cuda/bin:/home/min/a/ee695paa/cuda/bin:/home/min/a/ee695paa/cuda/bin:/package/gcc/8.3.0/bin:/usr/lib64/qt-3.3/bin:/usr/lib64/ccache:/usr/local/bin:/usr/bin:/usr/local/sbin:/usr/sbin:.
doing export CUDA_LAUNCH_BLOCKING=1
doing:  /home/min/a/ee695paa/github/gpu-app-collection/src/..//bin/9.1/release/b+tree-rodinia-3.1 file ./data/mil.txt command ./data/command.txt


        *** GPGPU-Sim Simulator Version 4.0.0  [build gpgpu-sim_git-commit-a5339f56558d282e0ff48181156f07c28d32c1b6_modified_0.0] ***


GPGPU-Sim PTX: simulation mode 0 (can change with PTX_SIM_MODE_FUNC environment variable:
               1=functional simulation only, 0=detailed performance simulator)
GPGPU-Sim: Configuration options:

-save_embedded_ptx                      0 # saves ptx files embedded in binary as <n>.ptx
-keep                                   0 # keep intermediate files created by GPGPU-Sim when interfacing with external programs
-gpgpu_ptx_save_converted_ptxplus                    0 # Saved converted ptxplus to a file
-gpgpu_occupancy_sm_number                   70 # The SM number to pass to ptxas when getting register usage for computing GPU occupancy. This parameter is required in the config.
-ptx_opcode_latency_int      4,13,4,5,145,21 # Opcode latencies for integers <ADD,MAX,MUL,MAD,DIV,SHFL>Default 1,1,19,25,145,32
-ptx_opcode_latency_fp          4,13,4,5,39 # Opcode latencies for single precision floating points <ADD,MAX,MUL,MAD,DIV>Default 1,1,1,1,30
-ptx_opcode_latency_dp         8,19,8,8,330 # Opcode latencies for double precision floating points <ADD,MAX,MUL,MAD,DIV>Default 8,8,8,8,335
-ptx_opcode_latency_sfu                  100 # Opcode latencies for SFU instructionsDefault 8
-ptx_opcode_latency_tesnor                   64 # Opcode latencies for Tensor instructionsDefault 64
-ptx_opcode_initiation_int          2,2,2,2,8,4 # Opcode initiation intervals for integers <ADD,MAX,MUL,MAD,DIV,SHFL>Default 1,1,4,4,32,4
-ptx_opcode_initiation_fp            2,2,2,2,4 # Opcode initiation intervals for single precision floating points <ADD,MAX,MUL,MAD,DIV>Default 1,1,1,1,5
-ptx_opcode_initiation_dp          4,4,4,4,130 # Opcode initiation intervals for double precision floating points <ADD,MAX,MUL,MAD,DIV>Default 8,8,8,8,130
-ptx_opcode_initiation_sfu                    8 # Opcode initiation intervals for sfu instructionsDefault 8
-ptx_opcode_initiation_tensor                   64 # Opcode initiation intervals for tensor instructionsDefault 64
-cdp_latency         7200,8000,100,12000,1600 # CDP API latency <cudaStreamCreateWithFlags, cudaGetParameterBufferV2_init_perWarp, cudaGetParameterBufferV2_perKernel, cudaLaunchDeviceV2_init_perWarp, cudaLaunchDevicV2_perKernel>Default 7200,8000,100,12000,1600
-network_mode                           2 # Interconnection network mode
-inter_config_file                   mesh # Interconnection network config file
-icnt_in_buffer_limit                  512 # in_buffer_limit
-icnt_out_buffer_limit                  512 # out_buffer_limit
-icnt_subnets                           2 # subnets
-icnt_arbiter_algo                      1 # arbiter_algo
-icnt_verbose                           0 # inct_verbose
-icnt_grant_cycles                      1 # grant_cycles
-gpgpu_ptx_use_cuobjdump                    1 # Use cuobjdump to extract ptx and sass from binaries
-gpgpu_experimental_lib_support                    0 # Try to extract code from cuda libraries [Broken because of unknown cudaGetExportTable]
-checkpoint_option                      0 #  checkpointing flag (0 = no checkpoint)
-checkpoint_kernel                      1 #  checkpointing during execution of which kernel (1- 1st kernel)
-checkpoint_CTA                         0 #  checkpointing after # of CTA (< less than total CTA)
-resume_option                          0 #  resume flag (0 = no resume)
-resume_kernel                          0 #  Resume from which kernel (1= 1st kernel)
-resume_CTA                             0 #  resume from which CTA 
-checkpoint_CTA_t                       0 #  resume from which CTA 
-checkpoint_insn_Y                      0 #  resume from which CTA 
-gpgpu_ptx_convert_to_ptxplus                    0 # Convert SASS (native ISA) to ptxplus and run ptxplus
-gpgpu_ptx_force_max_capability                   70 # Force maximum compute capability
-gpgpu_ptx_inst_debug_to_file                    0 # Dump executed instructions' debug information to file
-gpgpu_ptx_inst_debug_file       inst_debug.txt # Executed instructions' debug output file
-gpgpu_ptx_inst_debug_thread_uid                    1 # Thread UID for executed instructions' debug output
-gpgpu_simd_model                       1 # 1 = post-dominator
-gpgpu_shader_core_pipeline              2048:32 # shader core pipeline config, i.e., {<nthread>:<warpsize>}
-gpgpu_tex_cache:l1  N:4:128:256,L:R:m:N:L,T:512:8,128:2 # per-shader L1 texture cache  (READ-ONLY) config  {<nsets>:<bsize>:<assoc>,<rep>:<wr>:<alloc>:<wr_alloc>,<mshr>:<N>:<merge>,<mq>:<rf>}
-gpgpu_const_cache:l1 N:128:64:8,L:R:f:N:L,S:2:64,4 # per-shader L1 constant memory cache  (READ-ONLY) config  {<nsets>:<bsize>:<assoc>,<rep>:<wr>:<alloc>:<wr_alloc>,<mshr>:<N>:<merge>,<mq>} 
-gpgpu_cache:il1     N:64:128:16,L:R:f:N:L,S:2:48,4 # shader L1 instruction cache config  {<nsets>:<bsize>:<assoc>,<rep>:<wr>:<alloc>:<wr_alloc>,<mshr>:<N>:<merge>,<mq>} 
-gpgpu_cache:dl1     S:1:128:256,L:L:m:N:L,A:512:8,16:0,32 # per-shader L1 data cache config  {<nsets>:<bsize>:<assoc>,<rep>:<wr>:<alloc>:<wr_alloc>,<mshr>:<N>:<merge>,<mq> | none}
-gpgpu_l1_banks                         4 # The number of L1 cache banks
-gpgpu_l1_banks_byte_interleaving                   32 # l1 banks byte interleaving granularity
-gpgpu_l1_banks_hashing_function                    0 # l1 banks hashing function
-gpgpu_l1_latency                      20 # L1 Hit Latency
-gpgpu_smem_latency                    20 # smem Latency
-gpgpu_cache:dl1PrefL1                 none # per-shader L1 data cache config  {<nsets>:<bsize>:<assoc>,<rep>:<wr>:<alloc>:<wr_alloc>,<mshr>:<N>:<merge>,<mq> | none}
-gpgpu_cache:dl1PrefShared                 none # per-shader L1 data cache config  {<nsets>:<bsize>:<assoc>,<rep>:<wr>:<alloc>:<wr_alloc>,<mshr>:<N>:<merge>,<mq> | none}
-gpgpu_gmem_skip_L1D                    0 # global memory access skip L1D cache (implements -Xptxas -dlcm=cg, default=no skip)
-gpgpu_perfect_mem                      0 # enable perfect memory mode (no cache miss)
-n_regfile_gating_group                    4 # group of lanes that should be read/written together)
-gpgpu_clock_gated_reg_file                    0 # enable clock gated reg file for power calculations
-gpgpu_clock_gated_lanes                    0 # enable clock gated lanes for power calculations
-gpgpu_shader_registers                65536 # Number of registers per shader core. Limits number of concurrent CTAs. (default 8192)
-gpgpu_registers_per_block                65536 # Maximum number of registers per CTA. (default 8192)
-gpgpu_ignore_resources_limitation                    0 # gpgpu_ignore_resources_limitation (default 0)
-gpgpu_shader_cta                      32 # Maximum number of concurrent CTAs in shader (default 8)
-gpgpu_num_cta_barriers                   16 # Maximum number of named barriers per CTA (default 16)
-gpgpu_n_clusters                      80 # number of processing clusters
-gpgpu_n_cores_per_cluster                    8 # number of simd cores per cluster
-gpgpu_n_cluster_ejection_buffer_size                   32 # number of packets in ejection buffer
-gpgpu_n_ldst_response_buffer_size                    2 # number of response packets in ld/st unit ejection buffer
-gpgpu_shmem_per_block                65536 # Size of shared memory per thread block or CTA (default 48kB)
-gpgpu_shmem_size                   98304 # Size of shared memory per shader core (default 16kB)
-gpgpu_adaptive_cache_config                    1 # adaptive_cache_config
-gpgpu_shmem_sizeDefault                98304 # Size of shared memory per shader core (default 16kB)
-gpgpu_shmem_size_PrefL1                16384 # Size of shared memory per shader core (default 16kB)
-gpgpu_shmem_size_PrefShared                16384 # Size of shared memory per shader core (default 16kB)
-gpgpu_shmem_num_banks                   32 # Number of banks in the shared memory in each shader core (default 16)
-gpgpu_shmem_limited_broadcast                    0 # Limit shared memory to do one broadcast per cycle (default on)
-gpgpu_shmem_warp_parts                    1 # Number of portions a warp is divided into for shared memory bank conflict check 
-gpgpu_mem_unit_ports                    1 # The number of memory transactions allowed per core cycle
-gpgpu_shmem_warp_parts                    1 # Number of portions a warp is divided into for shared memory bank conflict check 
-gpgpu_warpdistro_shader                   -1 # Specify which shader core to collect the warp size distribution from
-gpgpu_warp_issue_shader                    0 # Specify which shader core to collect the warp issue distribution from
-gpgpu_local_mem_map                    1 # Mapping from local memory space address to simulated GPU physical address space (default = enabled)
-gpgpu_num_reg_banks                   16 # Number of register banks (default = 8)
-gpgpu_reg_bank_use_warp_id                    0 # Use warp ID in mapping registers to banks (default = off)
-gpgpu_sub_core_model                    1 # Sub Core Volta/Pascal model (default = off)
-gpgpu_enable_specialized_operand_collector                    0 # enable_specialized_operand_collector
-gpgpu_operand_collector_num_units_sp                    4 # number of collector units (default = 4)
-gpgpu_operand_collector_num_units_dp                    0 # number of collector units (default = 0)
-gpgpu_operand_collector_num_units_sfu                    4 # number of collector units (default = 4)
-gpgpu_operand_collector_num_units_int                    0 # number of collector units (default = 0)
-gpgpu_operand_collector_num_units_tensor_core                    4 # number of collector units (default = 4)
-gpgpu_operand_collector_num_units_mem                    2 # number of collector units (default = 2)
-gpgpu_operand_collector_num_units_gen                    8 # number of collector units (default = 0)
-gpgpu_operand_collector_num_in_ports_sp                    1 # number of collector unit in ports (default = 1)
-gpgpu_operand_collector_num_in_ports_dp                    0 # number of collector unit in ports (default = 0)
-gpgpu_operand_collector_num_in_ports_sfu                    1 # number of collector unit in ports (default = 1)
-gpgpu_operand_collector_num_in_ports_int                    0 # number of collector unit in ports (default = 0)
-gpgpu_operand_collector_num_in_ports_tensor_core                    1 # number of collector unit in ports (default = 1)
-gpgpu_operand_collector_num_in_ports_mem                    1 # number of collector unit in ports (default = 1)
-gpgpu_operand_collector_num_in_ports_gen                    8 # number of collector unit in ports (default = 0)
-gpgpu_operand_collector_num_out_ports_sp                    1 # number of collector unit in ports (default = 1)
-gpgpu_operand_collector_num_out_ports_dp                    0 # number of collector unit in ports (default = 0)
-gpgpu_operand_collector_num_out_ports_sfu                    1 # number of collector unit in ports (default = 1)
-gpgpu_operand_collector_num_out_ports_int                    0 # number of collector unit in ports (default = 0)
-gpgpu_operand_collector_num_out_ports_tensor_core                    1 # number of collector unit in ports (default = 1)
-gpgpu_operand_collector_num_out_ports_mem                    1 # number of collector unit in ports (default = 1)
-gpgpu_operand_collector_num_out_ports_gen                    8 # number of collector unit in ports (default = 0)
-gpgpu_coalesce_arch                   60 # Coalescing arch (GT200 = 13, Fermi = 20)
-gpgpu_num_sched_per_core                    4 # Number of warp schedulers per core
-gpgpu_max_insn_issue_per_warp                    1 # Max number of instructions that can be issued per warp in one cycle by scheduler (either 1 or 2)
-gpgpu_dual_issue_diff_exec_units                    1 # should dual issue use two different execution unit resources (Default = 1)
-gpgpu_simt_core_sim_order                    1 # Select the simulation order of cores in a cluster (0=Fix, 1=Round-Robin)
-gpgpu_pipeline_widths 4,4,4,4,4,4,4,4,4,4,8,4,4 # Pipeline widths ID_OC_SP,ID_OC_DP,ID_OC_INT,ID_OC_SFU,ID_OC_MEM,OC_EX_SP,OC_EX_DP,OC_EX_INT,OC_EX_SFU,OC_EX_MEM,EX_WB,ID_OC_TENSOR_CORE,OC_EX_TENSOR_CORE
-gpgpu_tensor_core_avail                    1 # Tensor Core Available (default=0)
-gpgpu_num_sp_units                     4 # Number of SP units (default=1)
-gpgpu_num_dp_units                     4 # Number of DP units (default=0)
-gpgpu_num_int_units                    4 # Number of INT units (default=0)
-gpgpu_num_sfu_units                    4 # Number of SF units (default=1)
-gpgpu_num_tensor_core_units                    4 # Number of tensor_core units (default=1)
-gpgpu_num_mem_units                    1 # Number if ldst units (default=1) WARNING: not hooked up to anything
-gpgpu_scheduler                      gto # Scheduler configuration: < lrr | gto | two_level_active > If two_level_active:<num_active_warps>:<inner_prioritization>:<outer_prioritization>For complete list of prioritization values see shader.h enum scheduler_prioritization_typeDefault: gto
-gpgpu_concurrent_kernel_sm                    0 # Support concurrent kernels on a SM (default = disabled)
-gpgpu_perfect_inst_const_cache                    1 # perfect inst and const cache mode, so all inst and const hits in the cache(default = disabled)
-gpgpu_inst_fetch_throughput                    4 # the number of fetched intruction per warp each cycle
-gpgpu_reg_file_port_throughput                    2 # the number ports of the register file
-specialized_unit_1         0,4,4,4,4,BRA # specialized unit config {<enabled>,<num_units>:<latency>:<initiation>,<ID_OC_SPEC>:<OC_EX_SPEC>,<NAME>}
-specialized_unit_2         0,4,4,4,4,BRA # specialized unit config {<enabled>,<num_units>:<latency>:<initiation>,<ID_OC_SPEC>:<OC_EX_SPEC>,<NAME>}
-specialized_unit_3         0,4,4,4,4,BRA # specialized unit config {<enabled>,<num_units>:<latency>:<initiation>,<ID_OC_SPEC>:<OC_EX_SPEC>,<NAME>}
-specialized_unit_4         0,4,4,4,4,BRA # specialized unit config {<enabled>,<num_units>:<latency>:<initiation>,<ID_OC_SPEC>:<OC_EX_SPEC>,<NAME>}
-specialized_unit_5         0,4,4,4,4,BRA # specialized unit config {<enabled>,<num_units>:<latency>:<initiation>,<ID_OC_SPEC>:<OC_EX_SPEC>,<NAME>}
-specialized_unit_6         0,4,4,4,4,BRA # specialized unit config {<enabled>,<num_units>:<latency>:<initiation>,<ID_OC_SPEC>:<OC_EX_SPEC>,<NAME>}
-specialized_unit_7         0,4,4,4,4,BRA # specialized unit config {<enabled>,<num_units>:<latency>:<initiation>,<ID_OC_SPEC>:<OC_EX_SPEC>,<NAME>}
-specialized_unit_8         0,4,4,4,4,BRA # specialized unit config {<enabled>,<num_units>:<latency>:<initiation>,<ID_OC_SPEC>:<OC_EX_SPEC>,<NAME>}
-gpgpu_perf_sim_memcpy                    1 # Fill the L2 cache on memcpy
-gpgpu_simple_dram_model                    0 # simple_dram_model with fixed latency and BW
-gpgpu_dram_scheduler                    1 # 0 = fifo, 1 = FR-FCFS (defaul)
-gpgpu_dram_partition_queues          64:64:64:64 # i2$:$2d:d2$:$2i
-l2_ideal                               0 # Use a ideal L2 cache that always hit
-gpgpu_cache:dl2     S:32:128:24,L:B:m:L:P,A:192:4,32:0,32 # unified banked L2 data cache config  {<nsets>:<bsize>:<assoc>,<rep>:<wr>:<alloc>:<wr_alloc>,<mshr>:<N>:<merge>,<mq>}
-gpgpu_cache:dl2_texture_only                    0 # L2 cache used for texture only
-gpgpu_n_mem                           32 # number of memory modules (e.g. memory controllers) in gpu
-gpgpu_n_sub_partition_per_mchannel                    2 # number of memory subpartition in each memory module
-gpgpu_n_mem_per_ctrlr                    1 # number of memory chips per memory controller
-gpgpu_memlatency_stat                   14 # track and display latency statistics 0x2 enables MC, 0x4 enables queue logs
-gpgpu_frfcfs_dram_sched_queue_size                   64 # 0 = unlimited (default); # entries per chip
-gpgpu_dram_return_queue_size                  192 # 0 = unlimited (default); # entries per chip
-gpgpu_dram_buswidth                   16 # default = 4 bytes (8 bytes per cycle at DDR)
-gpgpu_dram_burst_length                    2 # Burst length of each DRAM request (default = 4 data bus cycle)
-dram_data_command_freq_ratio                    2 # Fre46229150c06b5b73e7fab25ae479301  /home/min/a/ee695paa/github/gpu-app-collection/bin/9.1/release/b+tree-rodinia-3.1
Extracting PTX file and ptxas options    1: b+tree-rodinia-3.1.sm_30.ptx -arch=sm_30
Extracting PTX file and ptxas options    2: b+tree-rodinia-3.2.sm_35.ptx -arch=sm_35
Extracting PTX file and ptxas options    3: b+tree-rodinia-3.3.sm_50.ptx -arch=sm_50
Extracting PTX file and ptxas options    4: b+tree-rodinia-3.4.sm_60.ptx -arch=sm_60
Extracting PTX file and ptxas options    5: b+tree-rodinia-3.5.sm_62.ptx -arch=sm_62
equency ratio between DRAM data bus and command bus (default = 2 times, i.e. DDR)
-gpgpu_dram_timing_opt nbk=16:CCD=1:RRD=3:RCD=12:RAS=28:RP=12:RC=40: CL=12:WL=2:CDLR=3:WR=10:nbkgrp=4:CCDL=2:RTPL=3 # DRAM timing parameters = {nbk:tCCD:tRRD:tRCD:tRAS:tRP:tRC:CL:WL:tCDLR:tWR:nbkgrp:tCCDL:tRTPL}
-gpgpu_l2_rop_latency                  160 # ROP queue latency (default 85)
-dram_latency                         100 # DRAM latency (default 30)
-dram_dual_bus_interface                    1 # dual_bus_interface (default = 0) 
-dram_bnk_indexing_policy                    0 # dram_bnk_indexing_policy (0 = normal indexing, 1 = Xoring with the higher bits) (Default = 0)
-dram_bnkgrp_indexing_policy                    1 # dram_bnkgrp_indexing_policy (0 = take higher bits, 1 = take lower bits) (Default = 0)
-dram_seperate_write_queue_enable                    0 # Seperate_Write_Queue_Enable
-dram_write_queue_size             32:28:16 # Write_Queue_Size
-dram_elimnate_rw_turnaround                    0 # elimnate_rw_turnaround i.e set tWTR and tRTW = 0
-icnt_flit_size                        40 # icnt_flit_size
-gpgpu_mem_addr_mapping dramid@8;00000000.00000000.00000000.00000000.0000RRRR.RRRRRRRR.RBBBCCCB.CCCSSSSS # mapping memory address to dram model {dramid@<start bit>;<memory address map>}
-gpgpu_mem_addr_test                    0 # run sweep test to check address mapping for aliased address
-gpgpu_mem_address_mask                    1 # 0 = old addressing mask, 1 = new addressing mask, 2 = new add. mask + flipped bank sel and chip sel bits
-gpgpu_memory_partition_indexing                    2 # 0 = no indexing, 1 = bitwise xoring, 2 = IPoly, 3 = custom indexing
-gpuwattch_xml_file         gpuwattch.xml # GPUWattch XML file
-power_simulation_enabled                    0 # Turn on power simulator (1=On, 0=Off)
-power_per_cycle_dump                    0 # Dump detailed power output each cycle
-power_trace_enabled                    0 # produce a file for the power trace (1=On, 0=Off)
-power_trace_zlevel                     6 # Compression level of the power trace output log (0=no comp, 9=highest)
-steady_power_levels_enabled                    0 # produce a file for the steady power levels (1=On, 0=Off)
-steady_state_definition                  8:4 # allowed deviation:number of samples
-gpgpu_max_cycle                        0 # terminates gpu simulation early (0 = no limit)
-gpgpu_max_insn                1000000000 # terminates gpu simulation early (0 = no limit)
-gpgpu_max_cta                          0 # terminates gpu simulation early (0 = no limit)
-gpgpu_max_completed_cta                    0 # terminates gpu simulation early (0 = no limit)
-gpgpu_runtime_stat                   500 # display runtime statistics such as dram utilization {<freq>:<flag>}
-liveness_message_freq                    1 # Minimum number of seconds between simulation liveness messages (0 = always print)
-gpgpu_compute_capability_major                    7 # Major compute capability version number
-gpgpu_compute_capability_minor                    0 # Minor compute capability version number
-gpgpu_flush_l1_cache                    1 # Flush L1 cache at the end of each kernel call
-gpgpu_flush_l2_cache                    0 # Flush L2 cache at the end of each kernel call
-gpgpu_deadlock_detect                    1 # Stop the simulation at deadlock (1=on (default), 0=off)
-gpgpu_ptx_instruction_classification                    0 # if enabled will classify ptx instruction types per kernel (Max 255 kernels now)
-gpgpu_ptx_sim_mode                     0 # Select between Performance (default) or Functional simulation (1)
-gpgpu_clock_domains 1132.0:1132.0:1132.0:850.0 # Clock Domain Frequencies in MhZ {<Core Clock>:<ICNT Clock>:<L2 Clock>:<DRAM Clock>}
-gpgpu_max_concurrent_kernel                    8 # maximum kernels that can run concurrently on GPU
-gpgpu_cflog_interval                    0 # Interval between each snapshot in control flow logger
-visualizer_enabled                     0 # Turn on visualizer output (1=On, 0=Off)
-visualizer_outputfile                 NULL # Specifies the output log file for visualizer
-visualizer_zlevel                      6 # Compression level of the visualizer output log (0=no comp, 9=highest)
-gpgpu_stack_size_limit                 1024 # GPU thread stack size
-gpgpu_heap_size_limit              8388608 # GPU malloc heap size 
-gpgpu_runtime_sync_depth_limit                    2 # GPU device runtime synchronize depth
-gpgpu_runtime_pending_launch_count_limit                 2048 # GPU device runtime pending launch count
-trace_enabled                          0 # Turn on traces
-trace_components                    none # comma seperated list of traces to enable. Complete list found in trace_streams.tup. Default none
-trace_sampling_core                    0 # The core which is printed using CORE_DPRINTF. Default 0
-trace_sampling_memory_partition                   -1 # The memory partition which is printed using MEMPART_DPRINTF. Default -1 (i.e. all)
-enable_ptx_file_line_stats                    1 # Turn on PTX source line statistic profiling. (1 = On)
-ptx_line_stats_filename gpgpu_inst_stats.txt # Output file for PTX source line statistics.
-gpgpu_kernel_launch_latency                 5000 # Kernel launch latency in cycles. Default: 0
-gpgpu_cdp_enabled                      0 # Turn on CDP
-gpgpu_TB_launch_latency                    0 # thread block launch latency in cycles. Default: 0
DRAM Timing Options:
nbk                                    16 # number of banks
CCD                                     1 # column to column delay
RRD                                     3 # minimal delay between activation of rows in different banks
RCD                                    12 # row to column delay
RAS                                    28 # time needed to activate row
RP                                     12 # time needed to precharge (deactivate) row
RC                                     40 # row cycle time
CDLR                                    3 # switching from write to read (changes tWTR)
WR                                     10 # last data-in to row precharge
CL                                     12 # CAS latency
WL                                      2 # Write latency
nbkgrp                                  4 # number of bank groups
CCDL                                    2 # column to column delay between accesses to different bank groups
RTPL                                    3 # read to precharge delay between accesses to different bank groups
Total number of memory sub partition = 64
addr_dec_mask[CHIP]  = 0000000000001f00 	high:13 low:8
addr_dec_mask[BK]    = 00000000000e2000 	high:20 low:13
addr_dec_mask[ROW]   = 00000001fff00000 	high:33 low:20
addr_dec_mask[COL]   = 000000000001c0ff 	high:17 low:0
addr_dec_mask[BURST] = 000000000000001f 	high:5 low:0
sub_partition_id_mask = 0000000000002000
GPGPU-Sim uArch: clock freqs: 1132000000.000000:1132000000.000000:1132000000.000000:850000000.000000
GPGPU-Sim uArch: clock periods: 0.00000000088339222615:0.00000000088339222615:0.00000000088339222615:0.00000000117647058824
*** Initializing Memory Statistics ***
GPGPU-Sim uArch: performance model initialization complete.
self exe links to: /home/min/a/ee695paa/github/gpu-app-collection/bin/9.1/release/b+tree-rodinia-3.1
self exe links to: /home/min/a/ee695paa/github/gpu-app-collection/bin/9.1/release/b+tree-rodinia-3.1
9.1
GPGPU-Sim PTX: __cudaRegisterFatBinary, fat_cubin_handle = 1, filename=default
self exe links to: /home/min/a/ee695paa/github/gpu-app-collection/bin/9.1/release/b+tree-rodinia-3.1
Running md5sum using "md5sum /home/min/a/ee695paa/github/gpu-app-collection/bin/9.1/release/b+tree-rodinia-3.1 "
self exe links to: /home/min/a/ee695paa/github/gpu-app-collection/bin/9.1/release/b+tree-rodinia-3.1
Extracting specific PTX file named b+tree-rodinia-3.1.sm_30.ptx 
Extracting specific PTX file named b+tree-rodinia-3.2.sm_35.ptx 
Extracting specific PTX file named b+tree-rodinia-3.3.sm_50.ptx 
Extracting specific PTX file named b+tree-rodinia-3.4.sm_60.ptx 
Extracting specific PTX file named b+tree-rodinia-3.5.sm_62.ptx 
ExtExtracting PTX file and ptxas options    6: b+tree-rodinia-3.6.sm_70.ptx -arch=sm_70
Extracting PTX file and ptxas options    7: b+tree-rodinia-3.7.sm_30.ptx -arch=sm_30
Extracting PTX file and ptxas options    8: b+tree-rodinia-3.8.sm_35.ptx -arch=sm_35
Extracting PTX file and ptxas options    9: b+tree-rodinia-3.9.sm_50.ptx -arch=sm_50
Extracting PTX file and ptxas options   10: b+tree-rodinia-3.10.sm_60.ptx -arch=sm_60
Extracting PTX file and ptxas options   11: b+tree-rodinia-3.11.sm_62.ptx -arch=sm_62
Extracting PTX file and ptxas options   12: b+tree-rodinia-3.12.sm_70.ptx -arch=sm_70
Extracting PTX file and ptxas options   13: b+tree-rodinia-3.13.sm_30.ptx -arch=sm_30
Extracting PTX file and ptxas options   14: b+tree-rodinia-3.14.sm_35.ptx -arch=sm_35
Extracting PTX file and ptxas options   15: b+tree-rodinia-3.15.sm_50.ptx -arch=sm_50
Extracting PTX file and ptxas options   16: b+tree-rodinia-3.16.sm_60.ptx -arch=sm_60
Extracting PTX file and ptxas options   17: b+tree-rodinia-3.17.sm_62.ptx -arch=sm_62
Extracting PTX file and ptxas options   18: b+tree-rodinia-3.18.sm_70.ptx -arch=sm_70
racting specific PTX file named b+tree-rodinia-3.6.sm_70.ptx 
Extracting specific PTX file named b+tree-rodinia-3.7.sm_30.ptx 
Extracting specific PTX file named b+tree-rodinia-3.8.sm_35.ptx 
Extracting specific PTX file named b+tree-rodinia-3.9.sm_50.ptx 
Extracting specific PTX file named b+tree-rodinia-3.10.sm_60.ptx 
Extracting specific PTX file named b+tree-rodinia-3.11.sm_62.ptx 
Extracting specific PTX file named b+tree-rodinia-3.12.sm_70.ptx 
Extracting specific PTX file named b+tree-rodinia-3.13.sm_30.ptx 
Extracting specific PTX file named b+tree-rodinia-3.14.sm_35.ptx 
Extracting specific PTX file named b+tree-rodinia-3.15.sm_50.ptx 
Extracting specific PTX file named b+tree-rodinia-3.16.sm_60.ptx 
Extracting specific PTX file named b+tree-rodinia-3.17.sm_62.ptx 
Extracting specific PTX file named b+tree-rodinia-3.18.sm_70.ptx 
GPGPU-Sim PTX: __cudaRegisterFunction findK : hostFun 0x0x405b40, fat_cubin_handle = 1
GPGPU-Sim PTX: Parsing b+tree-rodinia-3.1.sm_30.ptx
GPGPU-Sim PTX: instruction assembly for function 'findK'...   done.
GPGPU-Sim PTX: finished parsing EMBEDDED .ptx file b+tree-rodinia-3.1.sm_30.ptx
GPGPU-Sim PTX: Parsing b+tree-rodinia-3.13.sm_30.ptx
GPGPU-Sim PTX: finished parsing EMBEDDED .ptx file b+tree-rodinia-3.13.sm_30.ptx
GPGPU-Sim PTX: Parsing b+tree-rodinia-3.7.sm_30.ptx
GPGPU-Sim PTX: instruction assembly for function 'findRangeK'...   done.
GPGPU-Sim PTX: finished parsing EMBEDDED .ptx file b+tree-rodinia-3.7.sm_30.ptx
GPGPU-Sim PTX: Parsing b+tree-rodinia-3.14.sm_35.ptx
GPGPU-Sim PTX: finished parsing EMBEDDED .ptx file b+tree-rodinia-3.14.sm_35.ptx
GPGPU-Sim PTX: Parsing b+tree-rodinia-3.2.sm_35.ptx
GPGPU-Sim PTX: Warning %p0 was declared previous at b+tree-rodinia-3.1.sm_30.ptx:26 skipping new declaration
GPGPU-Sim PTX: Warning %p1 was declared previous at b+tree-rodinia-3.1.sm_30.ptx:26 skipping new declaration
GPGPU-Sim PTX: Warning %p2 was declared previous at b+tree-rodinia-3.1.sm_30.ptx:26 skipping new declaration
GPGPU-Sim PTX: Warning %p3 was declared previous at b+tree-rodinia-3.1.sm_30.ptx:26 skipping new declaration
GPGPU-Sim PTX: Warning %p4 was declared previous at b+tree-rodinia-3.1.sm_30.ptx:26 skipping new declaration
GPGPU-Sim PTX: Warning %p5 was declared previous at b+tree-rodinia-3.1.sm_30.ptx:26 skipping new declaration
GPGPU-Sim PTX: Warning %p6 was declared previous at b+tree-rodinia-3.1.sm_30.ptx:26 skipping new declaration
GPGPU-Sim PTX: Warning %p7 was declared previous at b+tree-rodinia-3.1.sm_30.ptx:26 skipping new declaration
GPGPU-Sim PTX: Warning %p8 was declared previous at b+tree-rodinia-3.1.sm_30.ptx:26 skipping new declaration
GPGPU-Sim PTX: Warning %p9 was declared previous at b+tree-rodinia-3.1.sm_30.ptx:26 skipping new declaration
GPGPU-Sim PTX: Warning %p10 was declared previous at b+tree-rodinia-3.1.sm_30.ptx:26 skipping new declaration
GPGPU-Sim PTX: Warning %p11 was declared previous at b+tree-rodinia-3.1.sm_30.ptx:26 skipping new declaration
GPGPU-Sim PTX: Warning %p12 was declared previous at b+tree-rodinia-3.1.sm_30.ptx:26 skipping new declaration
GPGPU-Sim PTX: Warning %p13 was declared previous at b+tree-rodinia-3.1.sm_30.ptx:26 skipping new declaration
GPGPU-Sim PTX: Warning %p14 was declared previous at b+tree-rodinia-3.1.sm_30.ptx:26 skipping new declaration
GPGPU-Sim PTX: Warning %p15 was declared previous at b+tree-rodinia-3.1.sm_30.ptx:26 skipping new declaration
GPGPU-Sim PTX: Warning %p16 was declared previous at b+tree-rodinia-3.1.sm_30.ptx:26 skipping new declaration
GPGPU-Sim PTX: Warning %p17 was declared previous at b+tree-rodinia-3.1.sm_30.ptx:26 skipping new declaration
GPGPU-Sim PTX: Warning %p18 was declared previous at b+tree-rodinia-3.1.sm_30.ptx:26 skipping new declaration
GPGPU-Sim PTX: Warning %p19 was declared previous at b+tree-rodinia-3.1.sm_30.ptx:26 skipping new declaration
GPGPU-Sim PTX: Warning %p20 was declared previous at b+tree-rodinia-3.1.sm_30.ptx:26 skipping new declaration
GPGPU-Sim PTX: Warning %p21 was declared previous at b+tree-rodinia-3.1.sm_30.ptx:26 skipping new declaration
GPGPU-Sim PTX: Warning %p22 was declared previous at b+tree-rodinia-3.1.sm_30.ptx:26 skipping new declaration
GPGPU-Sim PTX: Warning %p23 was declared previous at b+tree-rodinia-3.1.sm_30.ptx:26 skipping new declaration
GPGPU-Sim PTX: Warning %p24 was declared previous at b+tree-rodinia-3.1.sm_30.ptx:26 skipping new declaration
GPGPU-Sim PTX: Warning %p25 was declared previous at b+tree-rodinia-3.1.sm_30.ptx:26 skipping new declaration
GPGPU-Sim PTX: Warning %p26 was declared previous at b+tree-rodinia-3.1.sm_30.ptx:26 skipping new declaration
GPGPU-Sim PTX: Warning %p27 was declared previous at b+tree-rodinia-3.1.sm_30.ptx:26 skipping new declaration
GPGPU-Sim PTX: Warning %p28 was declared previous at b+tree-rodinia-3.1.sm_30.ptx:26 skipping new declaration
GPGPU-Sim PTX: Warning %p29 was declared previous at b+tree-rodinia-3.1.sm_30.ptx:26 skipping new declaration
GPGPU-Sim PTX: Warning %p30 was declared previous at b+tree-rodinia-3.1.sm_30.ptx:26 skipping new declaration
GPGPU-Sim PTX: Warning %p31 was declared previous at b+tree-rodinia-3.1.sm_30.ptx:26 skipping new declaration
GPGPU-Sim PTX: Warning %p32 was declared previous at b+tree-rodinia-3.1.sm_30.ptx:26 skipping new declaration
GPGPU-Sim PTX: Warning %p33 was declared previous at b+tree-rodinia-3.1.sm_30.ptx:26 skipping new declaration
GPGPU-Sim PTX: Warning %p34 was declared previous at b+tree-rodinia-3.1.sm_30.ptx:26 skipping new declaration
GPGPU-Sim PTX: Warning %p35 was declared previous at b+tree-rodinia-3.1.sm_30.ptx:26 skipping new declaration
GPGPU-Sim PTX: Warning %r0 was declared previous at b+tree-rodinia-3.1.sm_30.ptx:27 skipping new declaration
GPGPU-Sim PTX: Warning %r1 was declared previous at b+tree-rodinia-3.1.sm_30.ptx:27 skipping new declaration
GPGPU-Sim PTX: Warning %r2 was declared previous at b+tree-rodinia-3.1.sm_30.ptx:27 skipping new declaration
GPGPU-Sim PTX: Warning %r3 was declared previous at b+tree-rodinia-3.1.sm_30.ptx:27 skipping new declaration
GPGPU-Sim PTX: Warning %r4 was declared previous at b+tree-rodinia-3.1.sm_30.ptx:27 skipping new declaration
GPGPU-Sim PTX: Warning %r5 was declared previous at b+tree-rodinia-3.1.sm_30.ptx:27 skipping new declaration
GPGPU-Sim PTX: Warning %r6 was declared previous at b+tree-rodinia-3.1.sm_30.ptx:27 skipping new declaration
GPGPU-Sim PTX: Warning %r7 was declared previous at b+tree-rodinia-3.1.sm_30.ptx:27 skipping new declaration
GPGPU-Sim PTX: Warning %r8 was declared previous at b+tree-rodinia-3.1.sm_30.ptx:27 skipping new declaration
GPGPU-Sim PTX: Warning %r9 was declared previous at b+tree-rodinia-3.1.sm_30.ptx:27 skipping new declaration
GPGPU-Sim PTX: Warning %r10 was declared previous at b+tree-rodinia-3.1.sm_30.ptx:27 skipping new declaration
GPGPU-Sim PTX: Warning %r11 was declared previous at b+tree-rodinia-3.1.sm_30.ptx:27 skipping new declaration
GPGPU-Sim PTX: Warning %r12 was declared previous at b+tree-rodinia-3.1.sm_30.ptx:27 skipping new declaration
GPGPU-Sim PTX: Warning %r13 was declared previous at b+tree-rodinia-3.1.sm_30.ptx:27 skipping new declaration
GPGPU-Sim PTX: Warning %r14 was declared previous at b+tree-rodinia-3.1.sm_30.ptx:27 skipping new declaration
GPGPU-Sim PTX: Warning %r15 was declared previous at b+tree-rodinia-3.1.sm_30.ptx:27 skipping new declaration
GPGPU-Sim PTX: Warning %r16 was declared previous at b+tree-rodinia-3.1.sm_30.ptx:27 skipping new declaration
GPGPU-Sim PTX: Warning %r17 was declared previous at b+tree-rodinia-3.1.sm_30.ptx:27 skipping new declaration
GPGPU-Sim PTX: Warning %r18 was declared previous at b+tree-rodinia-3.1.sm_30.ptx:27 skipping new declaration
GPGPU-Sim PTX: Warning %r19 was declared previous at b+tree-rodinia-3.1.sm_30.ptx:27 skipping new declaration
GPGPU-Sim PTX: Warning %r20 was declared previous at b+tree-rodinia-3.1.sm_30.ptx:27 skipping new declaration
GPGPU-Sim PTX: Warning %r21 was declared previous at b+tree-rodinia-3.1.sm_30.ptx:27 skipping new declaration
GPGPU-Sim PTX: Warning %r22 was declared previous at b+tree-rodinia-3.1.sm_30.ptx:27 skipping new declaration
GPGPU-Sim PTX: Warning %r23 was declared previous at b+tree-rodinia-3.1.sm_30.ptx:27 skipping new declaration
GPGPU-Sim PTX: Warning %r24 was declared previous at b+tree-rodinia-3.1.sm_30.ptx:27 skipping new declaration
GPGPU-Sim PTX: Warning %r25 was declared previous at b+tree-rodinia-3.1.sm_30.ptx:27 skipping new declaration
GPGPU-Sim PTX: Warning %r26 was declared previous at b+tree-rodinia-3.1.sm_30.ptx:27 skipping new declaration
GPGPU-Sim PTX: Warning %r27 was declared previous at b+tree-rodinia-3.1.sm_30.ptx:27 skipping new declaration
GPGPU-Sim PTX: Warning %r28 was declared previous at b+tree-rodinia-3.1.sm_30.ptx:27 skipping new declaration
GPGPU-Sim PTX: Warning %r29 was declared previous at b+tree-rodinia-3.1.sm_30.ptx:27 skipping new declaration
GPGPU-Sim PTX: Warning %r30 was declared previous at b+tree-rodinia-3.1.sm_30.ptx:27 skipping new declaration
GPGPU-Sim PTX: Warning %r31 was declared previous at b+tree-rodinia-3.1.sm_30.ptx:27 skipping new declaration
GPGPU-Sim PTX: Warning %r32 was declared previous at b+tree-rodinia-3.1.sm_30.ptx:27 skipping new declaration
GPGPU-Sim PTX: Warning %r33 was declared previous at b+tree-rodinia-3.1.sm_30.ptx:27 skipping new declaration
GPGPU-Sim PTX: Warning %r34 was declared previous at b+tree-rodinia-3.1.sm_30.ptx:27 skipping new declaration
GPGPU-Sim PTX: Warning %r35 was declared previous at b+tree-rodinia-3.1.sm_30.ptx:27 skipping new declaration
GPGPU-Sim PTX: Warning %r36 was declared previous at b+tree-rodinia-3.1.sm_30.ptx:27 skipping new declaration
GPGPU-Sim PTX: Warning %r37 was declared previous at b+tree-rodinia-3.1.sm_30.ptx:27 skipping new declaration
GPGPU-Sim PTX: Warning %r38 was declared previous at b+tree-rodinia-3.1.sm_30.ptx:27 skipping new declaration
GPGPU-Sim PTX: Warning %r39 was declared previous at b+tree-rodinia-3.1.sm_30.ptx:27 skipping new declaration
GPGPU-Sim PTX: Warning %r40 was declared previous at b+tree-rodinia-3.1.sm_30.ptx:27 skipping new declaration
GPGPU-Sim PTX: Warning %r41 was declared previous at b+tree-rodinia-3.1.sm_30.ptx:27 skipping new declaration
GPGPU-Sim PTX: Warning %r42 was declared previous at b+tree-rodinia-3.1.sm_30.ptx:27 skipping new declaration
GPGPU-Sim PTX: Warning %r43 was declared previous at b+tree-rodinia-3.1.sm_30.ptx:27 skipping new declaration
GPGPU-Sim PTX: Warning %r44 was declared previous at b+tree-rodinia-3.1.sm_30.ptx:27 skipping new declaration
GPGPU-Sim PTX: Warning %r45 was declared previous at b+tree-rodinia-3.1.sm_30.ptx:27 skipping new declaration
GPGPU-Sim PTX: Warning %r46 was declared previous at b+tree-rodinia-3.1.sm_30.ptx:27 skipping new declaration
GPGPU-Sim PTX: Warning %r47 was declared previous at b+tree-rodinia-3.1.sm_30.ptx:27 skipping new declaration
GPGPU-Sim PTX: Warning %r48 was declared previous at b+tree-rodinia-3.1.sm_30.ptx:27 skipping new declaration
GPGPU-Sim PTX: Warning %r49 was declared previous at b+tree-rodinia-3.1.sm_30.ptx:27 skipping new declaration
GPGPU-Sim PTX: Warning %r50 was declared previous at b+tree-rodinia-3.1.sm_30.ptx:27 skipping new declaration
GPGPU-Sim PTX: Warning %r51 was declared previous at b+tree-rodinia-3.1.sm_30.ptx:27 skipping new declaration
GPGPU-Sim PTX: Warning %r52 was declared previous at b+tree-rodinia-3.1.sm_30.ptx:27 skipping new declaration
GPGPU-Sim PTX: Warning %r53 was declared previous at b+tree-rodinia-3.1.sm_30.ptx:27 skipping new declaration
GPGPU-Sim PTX: Warning %r54 was declared previous at b+tree-rodinia-3.1.sm_30.ptx:27 skipping new declaration
GPGPU-Sim PTX: Warning %r55 was declared previous at b+tree-rodinia-3.1.sm_30.ptx:27 skipping new declaration
GPGPU-Sim PTX: Warning %r56 was declared previous at b+tree-rodinia-3.1.sm_30.ptx:27 skipping new declaration
GPGPU-Sim PTX: Warning %r57 was declared previous at b+tree-rodinia-3.1.sm_30.ptx:27 skipping new declaration
GPGPU-Sim PTX: Warning %r58 was declared previous at b+tree-rodinia-3.1.sm_30.ptx:27 skipping new declaration
GPGPU-Sim PTX: Warning %r59 was declared previous at b+tree-rodinia-3.1.sm_30.ptx:27 skipping new declaration
GPGPU-Sim PTX: Warning %r60 was declared previous at b+tree-rodinia-3.1.sm_30.ptx:27 skipping new declaration
GPGPU-Sim PTX: Warning %r61 was declared previous at b+tree-rodinia-3.1.sm_30.ptx:27 skipping new declaration
GPGPU-Sim PTX: Warning %r62 was declared previous at b+tree-rodinia-3.1.sm_30.ptx:27 skipping new declaration
GPGPU-Sim PTX: Warning %r63 was declared previous at b+tree-rodinia-3.1.sm_30.ptx:27 skipping new declaration
GPGPU-Sim PTX: Warning %r64 was declared previous at b+tree-rodinia-3.1.sm_30.ptx:27 skipping new declaration
GPGPU-Sim PTX: Warning %r65 was declared previous at b+tree-rodinia-3.1.sm_30.ptx:27 skipping new declaration
GPGPU-Sim PTX: Warning %r66 was declared previous at b+tree-rodinia-3.1.sm_30.ptx:27 skipping new declaration
GPGPU-Sim PTX: Warning %r67 was declared previous at b+tree-rodinia-3.1.sm_30.ptx:27 skipping new declaration
GPGPU-Sim PTX: Warning %r68 was declared previous at b+tree-rodinia-3.1.sm_30.ptx:27 skipping new declaration
GPGPU-Sim PTX: Warning %r69 was declared previous at b+tree-rodinia-3.1.sm_30.ptx:27 skipping new declaration
GPGPU-Sim PTX: Warning %r70 was declared previous at b+tree-rodinia-3.1.sm_30.ptx:27 skipping new declaration
GPGPU-Sim PTX: Warning %r71 was declared previous at b+tree-rodinia-3.1.sm_30.ptx:27 skipping new declaration
GPGPU-Sim PTX: Warning %r72 was declared previous at b+tree-rodinia-3.1.sm_30.ptx:27 skipping new declaration
GPGPU-Sim PTX: Warning %r73 was declared previous at b+tree-rodinia-3.1.sm_30.ptx:27 skipping new declaration
GPGPU-Sim PTX: Warning %r74 was declared previous at b+tree-rodinia-3.1.sm_30.ptx:27 skipping new declaration
GPGPU-Sim PTX: Warning %r75 was declared previous at b+tree-rodinia-3.1.sm_30.ptx:27 skipping new declaration
GPGPU-Sim PTX: Warning %r76 was declared previous at b+tree-rodinia-3.1.sm_30.ptx:27 skipping new declaration
GPGPU-Sim PTX: Warning %r77 was declared previous at b+tree-rodinia-3.1.sm_30.ptx:27 skipping new declaration
GPGPU-Sim PTX: Warning %r78 was declared previous at b+tree-rodinia-3.1.sm_30.ptx:27 skipping new declaration
GPGPU-Sim PTX: Warning %r79 was declared previous at b+tree-rodinia-3.1.sm_30.ptx:27 skipping new declaration
GPGPU-Sim PTX: Warning %r80 was declared previous at b+tree-rodinia-3.1.sm_30.ptx:27 skipping new declaration
GPGPU-Sim PTX: Warning %r81 was declared previous at b+tree-rodinia-3.1.sm_30.ptx:27 skipping new declaration
GPGPU-Sim PTX: Warning %r82 was declared previous at b+tree-rodinia-3.1.sm_30.ptx:27 skipping new declaration
GPGPU-Sim PTX: Warning %r83 was declared previous at b+tree-rodinia-3.1.sm_30.ptx:27 skipping new declaration
GPGPU-Sim PTX: Warning %r84 was declared previous at b+tree-rodinia-3.1.sm_30.ptx:27 skipping new declaration
GPGPU-Sim PTX: Warning %r85 was declared previous at b+tree-rodinia-3.1.sm_30.ptx:27 skipping new declaration
GPGPU-Sim PTX: Warning %r86 was declared previous at b+tree-rodinia-3.1.sm_30.ptx:27 skipping new declaration
GPGPU-Sim PTX: Warning %r87 was declared previous at b+tree-rodinia-3.1.sm_30.ptx:27 skipping new declaration
GPGPU-Sim PTX: Warning %r88 was declared previous at b+tree-rodinia-3.1.sm_30.ptx:27 skipping new declaration
GPGPU-Sim PTX: Warning %r89 was declared previous at b+tree-rodinia-3.1.sm_30.ptx:27 skipping new declaration
GPGPU-Sim PTX: Warning %r90 was declared previous at b+tree-rodinia-3.1.sm_30.ptx:27 skipping new declaration
GPGPU-Sim PTX: Warning %r91 was declared previous at b+tree-rodinia-3.1.sm_30.ptx:27 skipping new declaration
GPGPU-Sim PTX: Warning %r92 was declared previous at b+tree-rodinia-3.1.sm_30.ptx:27 skipping new declaration
GPGPU-Sim PTX: Warning %r93 was declared previous at b+tree-rodinia-3.1.sm_30.ptx:27 skipping new declaration
GPGPU-Sim PTX: Warning %r94 was declared previous at b+tree-rodinia-3.1.sm_30.ptx:27 skipping new declaration
GPGPU-Sim PTX: Warning %rd0 was declared previous at b+tree-rodinia-3.1.sm_30.ptx:28 skipping new declaration
GPGPU-Sim PTX: Warning %rd1 was declared previous at b+tree-rodinia-3.1.sm_30.ptx:28 skipping new declaration
GPGPU-Sim PTX: Warning %rd2 was declared previous at b+tree-rodinia-3.1.sm_30.ptx:28 skipping new declaration
GPGPU-Sim PTX: Warning %rd3 was declared previous at b+tree-rodinia-3.1.sm_30.ptx:28 skipping new declaration
GPGPU-Sim PTX: Warning %rd4 was declared previous at b+tree-rodinia-3.1.sm_30.ptx:28 skipping new declaration
GPGPU-Sim PTX: Warning %rd5 was declared previous at b+tree-rodinia-3.1.sm_30.ptx:28 skipping new declaration
GPGPU-Sim PTX: Warning %rd6 was declared previous at b+tree-rodinia-3.1.sm_30.ptx:28 skipping new declaration
GPGPU-Sim PTX: Warning %rd7 was declared previous at b+tree-rodinia-3.1.sm_30.ptx:28 skipping new declaration
GPGPU-Sim PTX: Warning %rd8 was declared previous at b+tree-rodinia-3.1.sm_30.ptx:28 skipping new declaration
GPGPU-Sim PTX: Warning %rd9 was declared previous at b+tree-rodinia-3.1.sm_30.ptx:28 skipping new declaration
GPGPU-Sim PTX: Warning %rd10 was declared previous at b+tree-rodinia-3.1.sm_30.ptx:28 skipping new declaration
GPGPU-Sim PTX: Warning %rd11 was declared previous at b+tree-rodinia-3.1.sm_30.ptx:28 skipping new declaration
GPGPU-Sim PTX: Warning %rd12 was declared previous at b+tree-rodinia-3.1.sm_30.ptx:28 skipping new declaration
GPGPU-Sim PTX: Warning %rd13 was declared previous at b+tree-rodinia-3.1.sm_30.ptx:28 skipping new declaration
GPGPU-Sim PTX: Warning %rd14 was declared previous at b+tree-rodinia-3.1.sm_30.ptx:28 skipping new declaration
GPGPU-Sim PTX: Warning %rd15 was declared previous at b+tree-rodinia-3.1.sm_30.ptx:28 skipping new declaration
GPGPU-Sim PTX: Warning %rd16 was declared previous at b+tree-rodinia-3.1.sm_30.ptx:28 skipping new declaration
GPGPU-Sim PTX: Warning %rd17 was declared previous at b+tree-rodinia-3.1.sm_30.ptx:28 skipping new declaration
GPGPU-Sim PTX: Warning %rd18 was declared previous at b+tree-rodinia-3.1.sm_30.ptx:28 skipping new declaration
GPGPU-Sim PTX: Warning %rd19 was declared previous at b+tree-rodinia-3.1.sm_30.ptx:28 skipping new declaration
GPGPU-Sim PTX: Warning %rd20 was declared previous at b+tree-rodinia-3.1.sm_30.ptx:28 skipping new declaration
GPGPU-Sim PTX: Warning %rd21 was declared previous at b+tree-rodinia-3.1.sm_30.ptx:28 skipping new declaration
GPGPU-Sim PTX: Warning %rd22 was declared previous at b+tree-rodinia-3.1.sm_30.ptx:28 skipping new declaration
GPGPU-Sim PTX: Warning %rd23 was declared previous at b+tree-rodinia-3.1.sm_30.ptx:28 skipping new declaration
GPGPU-Sim PTX: Warning %rd24 was declared previous at b+tree-rodinia-3.1.sm_30.ptx:28 skipping new declaration
GPGPU-Sim PTX: Warning %rd25 was declared previous at b+tree-rodinia-3.1.sm_30.ptx:28 skipping new declaration
GPGPU-Sim PTX: Warning %rd26 was declared previous at b+tree-rodinia-3.1.sm_30.ptx:28 skipping new declaration
GPGPU-Sim PTX: Warning %rd27 was declared previous at b+tree-rodinia-3.1.sm_30.ptx:28 skipping new declaration
GPGPU-Sim PTX: Warning %rd28 was declared previous at b+tree-rodinia-3.1.sm_30.ptx:28 skipping new declaration
GPGPU-Sim PTX: Warning %rd29 was declared previous at b+tree-rodinia-3.1.sm_30.ptx:28 skipping new declaration
GPGPU-Sim PTX: Warning %rd30 was declared previous at b+tree-rodinia-3.1.sm_30.ptx:28 skipping new declaration
GPGPU-Sim PTX: Warning %rd31 was declared previous at b+tree-rodinia-3.1.sm_30.ptx:28 skipping new declaration
GPGPU-Sim PTX: Warning %rd32 was declared previous at b+tree-rodinia-3.1.sm_30.ptx:28 skipping new declaration
GPGPU-Sim PTX: Warning %rd33 was declared previous at b+tree-rodinia-3.1.sm_30.ptx:28 skipping new declaration
GPGPU-Sim PTX: Warning %rd34 was declared previous at b+tree-rodinia-3.1.sm_30.ptx:28 skipping new declaration
GPGPU-Sim PTX: Warning %rd35 was declared previous at b+tree-rodinia-3.1.sm_30.ptx:28 skipping new declaration
GPGPU-Sim PTX: Warning %rd36 was declared previous at b+tree-rodinia-3.1.sm_30.ptx:28 skipping new declaration
GPGPU-Sim PTX: Warning %rd37 was declared previous at b+tree-rodinia-3.1.sm_30.ptx:28 skipping new declaration
GPGPU-Sim PTX: Warning %rd38 was declared previous at b+tree-rodinia-3.1.sm_30.ptx:28 skipping new declaration
GPGPU-Sim PTX: Warning %rd39 was declared previous at b+tree-rodinia-3.1.sm_30.ptx:28 skipping new declaration
GPGPU-Sim PTX: Warning %rd40 was declared previous at b+tree-rodinia-3.1.sm_30.ptx:28 skipping new declaration
GPGPU-Sim PTX: Warning %rd41 was declared previous at b+tree-rodinia-3.1.sm_30.ptx:28 skipping new declaration
GPGPU-Sim PTX: Warning %rd42 was declared previous at b+tree-rodinia-3.1.sm_30.ptx:28 skipping new declaration
GPGPU-Sim PTX: Warning %rd43 was declared previous at b+tree-rodinia-3.1.sm_30.ptx:28 skipping new declaration
GPGPU-Sim PTX: Warning %rd44 was declared previous at b+tree-rodinia-3.1.sm_30.ptx:28 skipping new declaration
GPGPU-Sim PTX: Warning %rd45 was declared previous at b+tree-rodinia-3.1.sm_30.ptx:28 skipping new declaration
GPGPU-Sim PTX: Warning %rd46 was declared previous at b+tree-rodinia-3.1.sm_30.ptx:28 skipping new declaration
GPGPU-Sim PTX: Warning %rd47 was declared previous at b+tree-rodinia-3.1.sm_30.ptx:28 skipping new declaration
GPGPU-Sim PTX: Warning %rd48 was declared previous at b+tree-rodinia-3.1.sm_30.ptx:28 skipping new declaration
GPGPU-Sim PTX: Warning %rd49 was declared previous at b+tree-rodinia-3.1.sm_30.ptx:28 skipping new declaration
GPGPU-Sim PTX: Warning %rd50 was declared previous at b+tree-rodinia-3.1.sm_30.ptx:28 skipping new declaration
GPGPU-Sim PTX: Warning %rd51 was declared previous at b+tree-rodinia-3.1.sm_30.ptx:28 skipping new declaration
GPGPU-Sim PTX: Warning %rd52 was declared previous at b+tree-rodinia-3.1.sm_30.ptx:28 skipping new declaration
GPGPU-Sim PTX: Warning %rd53 was declared previous at b+tree-rodinia-3.1.sm_30.ptx:28 skipping new declaration
GPGPU-Sim PTX: Warning %rd54 was declared previous at b+tree-rodinia-3.1.sm_30.ptx:28 skipping new declaration
GPGPU-Sim PTX: Warning %rd55 was declared previous at b+tree-rodinia-3.1.sm_30.ptx:28 skipping new declaration
GPGPU-Sim PTX: Warning %rd56 was declared previous at b+tree-rodinia-3.1.sm_30.ptx:28 skipping new declaration
GPGPU-Sim PTX: Warning %rd57 was declared previous at b+tree-rodinia-3.1.sm_30.ptx:28 skipping new declaration
GPGPU-Sim PTX: Warning %rd58 was declared previous at b+tree-rodinia-3.1.sm_30.ptx:28 skipping new declaration
GPGPU-Sim PTX: Warning %rd59 was declared previous at b+tree-rodinia-3.1.sm_30.ptx:28 skipping new declaration
GPGPU-Sim PTX: Warning %rd60 was declared previous at b+tree-rodinia-3.1.sm_30.ptx:28 skipping new declaration
GPGPU-Sim PTX: Warning %rd61 was declared previous at b+tree-rodinia-3.1.sm_30.ptx:28 skipping new declaration
GPGPU-Sim PTX: Warning %rd62 was declared previous at b+tree-rodinia-3.1.sm_30.ptx:28 skipping new declaration
GPGPU-Sim PTX: Warning %rd63 was declared previous at b+tree-rodinia-3.1.sm_30.ptx:28 skipping new declaration
GPGPU-Sim PTX: Warning %rd64 was declared previous at b+tree-rodinia-3.1.sm_30.ptx:28 skipping new declaration
GPGPU-Sim PTX: Warning %rd65 was declared previous at b+tree-rodinia-3.1.sm_30.ptx:28 skipping new declaration
GPGPU-Sim PTX: Warning %rd66 was declared previous at b+tree-rodinia-3.1.sm_30.ptx:28 skipping new declaration
GPGPU-Sim PTX: Warning %rd67 was declared previous at b+tree-rodinia-3.1.sm_30.ptx:28 skipping new declaration
GPGPU-Sim PTX: Warning %rd68 was declared previous at b+tree-rodinia-3.1.sm_30.ptx:28 skipping new declaration
GPGPU-Sim PTX: Warning %rd69 was declared previous at b+tree-rodinia-3.1.sm_30.ptx:28 skipping new declaration
GPGPU-Sim PTX: Warning %rd70 was declared previous at b+tree-rodinia-3.1.sm_30.ptx:28 skipping new declaration
GPGPU-Sim PTX: Warning %rd71 was declared previous at b+tree-rodinia-3.1.sm_30.ptx:28 skipping new declaration
GPGPU-Sim PTX: Warning %rd72 was declared previous at b+tree-rodinia-3.1.sm_30.ptx:28 skipping new declaration
GPGPU-Sim PTX: Warning %rd73 was declared previous at b+tree-rodinia-3.1.sm_30.ptx:28 skipping new declaration
GPGPU-Sim PTX: Warning %rd74 was declared previous at b+tree-rodinia-3.1.sm_30.ptx:28 skipping new declaration
GPGPU-Sim PTX: Warning %rd75 was declared previous at b+tree-rodinia-3.1.sm_30.ptx:28 skipping new declaration
GPGPU-Sim PTX: Warning %rd76 was declared previous at b+tree-rodinia-3.1.sm_30.ptx:28 skipping new declaration
GPGPU-Sim PTX: Warning %rd77 was declared previous at b+tree-rodinia-3.1.sm_30.ptx:28 skipping new declaration
GPGPU-Sim PTX: Warning %rd78 was declared previous at b+tree-rodinia-3.1.sm_30.ptx:28 skipping new declaration
GPGPU-Sim PTX: Warning %rd79 was declared previous at b+tree-rodinia-3.1.sm_30.ptx:28 skipping new declaration
GPGPU-Sim PTX: Warning %rd80 was declared previous at b+tree-rodinia-3.1.sm_30.ptx:28 skipping new declaration
GPGPU-Sim PTX: Warning %rd81 was declared previous at b+tree-rodinia-3.1.sm_30.ptx:28 skipping new declaration
GPGPU-Sim PTX: Warning %rd82 was declared previous at b+tree-rodinia-3.1.sm_30.ptx:28 skipping new declaration
GPGPU-Sim PTX: Warning %rd83 was declared previous at b+tree-rodinia-3.1.sm_30.ptx:28 skipping new declaration
GPGPU-Sim PTX: Warning %rd84 was declared previous at b+tree-rodinia-3.1.sm_30.ptx:28 skipping new declaration
GPGPU-Sim PTX: Warning %rd85 was declared previous at b+tree-rodinia-3.1.sm_30.ptx:28 skipping new declaration
GPGPU-Sim PTX: Warning %rd86 was declared previous at b+tree-rodinia-3.1.sm_30.ptx:28 skipping new declaration
GPGPU-Sim PTX: Warning %rd87 was declared previous at b+tree-rodinia-3.1.sm_30.ptx:28 skipping new declaration
GPGPU-Sim PTX: Warning %rd88 was declared previous at b+tree-rodinia-3.1.sm_30.ptx:28 skipping new declaration
GPGPU-Sim PTX: Warning %rd89 was declared previous at b+tree-rodinia-3.1.sm_30.ptx:28 skipping new declaration
GPGPU-Sim PTX: Warning %rd90 was declared previous at b+tree-rodinia-3.1.sm_30.ptx:28 skipping new declaration
GPGPU-Sim PTX: Warning %rd91 was declared previous at b+tree-rodinia-3.1.sm_30.ptx:28 skipping new declaration
GPGPU-Sim PTX: Warning %rd92 was declared previous at b+tree-rodinia-3.1.sm_30.ptx:28 skipping new declaration
GPGPU-Sim PTX: Warning %rd93 was declared previous at b+tree-rodinia-3.1.sm_30.ptx:28 skipping new declaration
GPGPU-Sim PTX: Warning %rd94 was declared previous at b+tree-rodinia-3.1.sm_30.ptx:28 skipping new declaration
GPGPU-Sim PTX: Warning %rd95 was declared previous at b+tree-rodinia-3.1.sm_30.ptx:28 skipping new declaration
GPGPU-Sim PTX: Warning %rd96 was declared previous at b+tree-rodinia-3.1.sm_30.ptx:28 skipping new declaration
GPGPU-Sim PTX: Warning %rd97 was declared previous at b+tree-rodinia-3.1.sm_30.ptx:28 skipping new declaration
GPGPU-Sim PTX: Warning %rd98 was declared previous at b+tree-rodinia-3.1.sm_30.ptx:28 skipping new declaration
GPGPU-Sim PTX: Warning %rd99 was declared previous at b+tree-rodinia-3.1.sm_30.ptx:28 skipping new declaration
GPGPU-Sim PTX: Warning %rd100 was declared previous at b+tree-rodinia-3.1.sm_30.ptx:28 skipping new declaration
GPGPU-Sim PTX: Warning %rd101 was declared previous at b+tree-rodinia-3.1.sm_30.ptx:28 skipping new declaration
GPGPU-Sim PTX: Warning %rd102 was declared previous at b+tree-rodinia-3.1.sm_30.ptx:28 skipping new declaration
GPGPU-Sim PTX: Warning %rd103 was declared previous at b+tree-rodinia-3.1.sm_30.ptx:28 skipping new declaration
GPGPU-Sim PTX: Warning %rd104 was declared previous at b+tree-rodinia-3.1.sm_30.ptx:28 skipping new declaration
GPGPU-Sim PTX: Warning %rd105 was declared previous at b+tree-rodinia-3.1.sm_30.ptx:28 skipping new declaration
GPGPU-Sim PTX: Warning %rd106 was declared previous at b+tree-rodinia-3.1.sm_30.ptx:28 skipping new declaration
GPGPU-Sim PTX: Warning %rd107 was declared previous at b+tree-rodinia-3.1.sm_30.ptx:28 skipping new declaration
GPGPU-Sim PTX: Warning %rd108 was declared previous at b+tree-rodinia-3.1.sm_30.ptx:28 skipping new declaration
GPGPU-Sim PTX: Warning %rd109 was declared previous at b+tree-rodinia-3.1.sm_30.ptx:28 skipping new declaration
GPGPU-Sim PTX: Warning %rd110 was declared previous at b+tree-rodinia-3.1.sm_30.ptx:28 skipping new declaration
GPGPU-Sim PTX: Warning %rd111 was declared previous at b+tree-rodinia-3.1.sm_30.ptx:28 skipping new declaration
GPGPU-Sim PTX: Warning %rd112 was declared previous at b+tree-rodinia-3.1.sm_30.ptx:28 skipping new declaration
GPGPU-Sim PTX: Warning %rd113 was declared previous at b+tree-rodinia-3.1.sm_30.ptx:28 skipping new declaration
GPGPU-Sim PTX: Warning %rd114 was declared previous at b+tree-rodinia-3.1.sm_30.ptx:28 skipping new declaration
GPGPU-Sim PTX: Warning %rd115 was declared previous at b+tree-rodinia-3.1.sm_30.ptx:28 skipping new declaration
GPGPU-Sim PTX: Warning %rd116 was declared previous at b+tree-rodinia-3.1.sm_30.ptx:28 skipping new declaration
GPGPU-Sim PTX: Warning %rd117 was declared previous at b+tree-rodinia-3.1.sm_30.ptx:28 skipping new declaration
GPGPU-Sim PTX: Warning %rd118 was declared previous at b+tree-rodinia-3.1.sm_30.ptx:28 skipping new declaration
GPGPU-Sim PTX: Warning %rd119 was declared previous at b+tree-rodinia-3.1.sm_30.ptx:28 skipping new declaration
GPGPU-Sim PTX: Warning %rd120 was declared previous at b+tree-rodinia-3.1.sm_30.ptx:28 skipping new declaration
GPGPU-Sim PTX: Warning %rd121 was declared previous at b+tree-rodinia-3.1.sm_30.ptx:28 skipping new declaration
GPGPU-Sim PTX: Warning %rd122 was declared previous at b+tree-rodinia-3.1.sm_30.ptx:28 skipping new declaration
GPGPU-Sim PTX: Warning %rd123 was declared previous at b+tree-rodinia-3.1.sm_30.ptx:28 skipping new declaration
GPGPU-Sim PTX: Warning %rd124 was declared previous at b+tree-rodinia-3.1.sm_30.ptx:28 skipping new declaration
GPGPU-Sim PTX: Warning %rd125 was declared previous at b+tree-rodinia-3.1.sm_30.ptx:28 skipping new declaration
GPGPU-Sim PTX: Warning %rd126 was declared previous at b+tree-rodinia-3.1.sm_30.ptx:28 skipping new declaration
GPGPU-Sim PTX: Warning %rd127 was declared previous at b+tree-rodinia-3.1.sm_30.ptx:28 skipping new declaration
GPGPU-Sim PTX: Warning %rd128 was declared previous at b+tree-rodinia-3.1.sm_30.ptx:28 skipping new declaration
GPGPU-Sim PTX: Warning %rd129 was declared previous at b+tree-rodinia-3.1.sm_30.ptx:28 skipping new declaration
GPGPU-Sim PTX: Warning %rd130 was declared previous at b+tree-rodinia-3.1.sm_30.ptx:28 skipping new declaration
GPGPU-Sim PTX: Warning %rd131 was declared previous at b+tree-rodinia-3.1.sm_30.ptx:28 skipping new declaration
GPGPU-Sim PTX: Warning %rd132 was declared previous at b+tree-rodinia-3.1.sm_30.ptx:28 skipping new declaration
GPGPU-Sim PTX: Warning %rd133 was declared previous at b+tree-rodinia-3.1.sm_30.ptx:28 skipping new declaration
GPGPU-Sim PTX: Warning %rd134 was declared previous at b+tree-rodinia-3.1.sm_30.ptx:28 skipping new declaration
GPGPU-Sim PTX: Warning %rd135 was declared previous at b+tree-rodinia-3.1.sm_30.ptx:28 skipping new declaration
GPGPU-Sim PTX: Warning %rd136 was declared previous at b+tree-rodinia-3.1.sm_30.ptx:28 skipping new declaration
GPGPU-Sim PTX: Warning %rd137 was declared previous at b+tree-rodinia-3.1.sm_30.ptx:28 skipping new declaration
GPGPU-Sim PTX: Warning %rd138 was declared previous at b+tree-rodinia-3.1.sm_30.ptx:28 skipping new declaration
GPGPU-Sim PTX: Warning %rd139 was declared previous at b+tree-rodinia-3.1.sm_30.ptx:28 skipping new declaration
GPGPU-Sim PTX: Warning %rd140 was declared previous at b+tree-rodinia-3.1.sm_30.ptx:28 skipping new declaration
GPGPU-Sim PTX: Warning %rd141 was declared previous at b+tree-rodinia-3.1.sm_30.ptx:28 skipping new declaration
GPGPU-Sim PTX: Warning %rd142 was declared previous at b+tree-rodinia-3.1.sm_30.ptx:28 skipping new declaration
GPGPU-Sim PTX: Warning %rd143 was declared previous at b+tree-rodinia-3.1.sm_30.ptx:28 skipping new declaration
GPGPU-Sim PTX: Warning %rd144 was declared previous at b+tree-rodinia-3.1.sm_30.ptx:28 skipping new declaration
GPGPU-Sim PTX: Warning %rd145 was declared previous at b+tree-rodinia-3.1.sm_30.ptx:28 skipping new declaration
GPGPU-Sim PTX: Warning %rd146 was declared previous at b+tree-rodinia-3.1.sm_30.ptx:28 skipping new declaration
GPGPU-Sim PTX: Warning %rd147 was declared previous at b+tree-rodinia-3.1.sm_30.ptx:28 skipping new declaration
GPGPU-Sim PTX: Warning %rd148 was declared previous at b+tree-rodinia-3.1.sm_30.ptx:28 skipping new declaration
GPGPU-Sim PTX: Warning %rd149 was declared previous at b+tree-rodinia-3.1.sm_30.ptx:28 skipping new declaration
GPGPU-Sim PTX: Warning %rd150 was declared previous at b+tree-rodinia-3.1.sm_30.ptx:28 skipping new declaration
GPGPU-Sim PTX: Warning %rd151 was declared previous at b+tree-rodinia-3.1.sm_30.ptx:28 skipping new declaration
GPGPU-Sim PTX: Warning %rd152 was declared previous at b+tree-rodinia-3.1.sm_30.ptx:28 skipping new declaration
GPGPU-Sim PTX: Warning %rd153 was declared previous at b+tree-rodinia-3.1.sm_30.ptx:28 skipping new declaration
GPGPU-Sim PTX: Warning %rd154 was declared previous at b+tree-rodinia-3.1.sm_30.ptx:28 skipping new declaration
GPGPU-Sim PTX: Warning %rd155 was declared previous at b+tree-rodinia-3.1.sm_30.ptx:28 skipping new declaration
GPGPU-Sim PTX: Warning %rd156 was declared previous at b+tree-rodinia-3.1.sm_30.ptx:28 skipping new declaration
GPGPU-Sim PTX: Warning %rd157 was declared previous at b+tree-rodinia-3.1.sm_30.ptx:28 skipping new declaration
GPGPU-Sim PTX: Warning %rd158 was declared previous at b+tree-rodinia-3.1.sm_30.ptx:28 skipping new declaration
GPGPU-Sim PTX: Warning %rd159 was declared previous at b+tree-rodinia-3.1.sm_30.ptx:28 skipping new declaration
GPGPU-Sim PTX: Warning %rd160 was declared previous at b+tree-rodinia-3.1.sm_30.ptx:28 skipping new declaration
GPGPU-Sim PTX: Warning %rd161 was declared previous at b+tree-rodinia-3.1.sm_30.ptx:28 skipping new declaration
GPGPU-Sim PTX: Warning %rd162 was declared previous at b+tree-rodinia-3.1.sm_30.ptx:28 skipping new declaration
GPGPU-Sim PTX: Warning %rd163 was declared previous at b+tree-rodinia-3.1.sm_30.ptx:28 skipping new declaration
GPGPU-Sim PTX: Warning %rd164 was declared previous at b+tree-rodinia-3.1.sm_30.ptx:28 skipping new declaration
GPGPU-Sim PTX: Warning %rd165 was declared previous at b+tree-rodinia-3.1.sm_30.ptx:28 skipping new declaration
GPGPU-Sim PTX: Warning %rd166 was declared previous at b+tree-rodinia-3.1.sm_30.ptx:28 skipping new declaration
GPGPU-Sim PTX: Warning %rd167 was declared previous at b+tree-rodinia-3.1.sm_30.ptx:28 skipping new declaration
GPGPU-Sim PTX: Warning %rd168 was declared previous at b+tree-rodinia-3.1.sm_30.ptx:28 skipping new declaration
GPGPU-Sim PTX: Warning %rd169 was declared previous at b+tree-rodinia-3.1.sm_30.ptx:28 skipping new declaration
GPGPU-Sim PTX: Warning %rd170 was declared previous at b+tree-rodinia-3.1.sm_30.ptx:28 skipping new declaration
GPGPU-Sim PTX: Warning %rd171 was declared previous at b+tree-rodinia-3.1.sm_30.ptx:28 skipping new declaration
GPGPU-Sim PTX: Warning %rd172 was declared previous at b+tree-rodinia-3.1.sm_30.ptx:28 skipping new declaration
GPGPU-Sim PTX: Warning %rd173 was declared previous at b+tree-rodinia-3.1.sm_30.ptx:28 skipping new declaration
GPGPU-Sim PTX: instruction assembly for function 'findK'...   done.
GPGPU-Sim PTX: finished parsing EMBEDDED .ptx file b+tree-rodinia-3.2.sm_35.ptx
GPGPU-Sim PTX: Parsing b+tree-rodinia-3.8.sm_35.ptx
GPGPU-Sim PTX: Warning %p0 was declared previous at b+tree-rodinia-3.7.sm_30.ptx:29 skipping new declaration
GPGPU-Sim PTX: Warning %p1 was declared previous at b+tree-rodinia-3.7.sm_30.ptx:29 skipping new declaration
GPGPU-Sim PTX: Warning %p2 was declared previous at b+tree-rodinia-3.7.sm_30.ptx:29 skipping new declaration
GPGPU-Sim PTX: Warning %p3 was declared previous at b+tree-rodinia-3.7.sm_30.ptx:29 skipping new declaration
GPGPU-Sim PTX: Warning %p4 was declared previous at b+tree-rodinia-3.7.sm_30.ptx:29 skipping new declaration
GPGPU-Sim PTX: Warning %p5 was declared previous at b+tree-rodinia-3.7.sm_30.ptx:29 skipping new declaration
GPGPU-Sim PTX: Warning %p6 was declared previous at b+tree-rodinia-3.7.sm_30.ptx:29 skipping new declaration
GPGPU-Sim PTX: Warning %p7 was declared previous at b+tree-rodinia-3.7.sm_30.ptx:29 skipping new declaration
GPGPU-Sim PTX: Warning %p8 was declared previous at b+tree-rodinia-3.7.sm_30.ptx:29 skipping new declaration
GPGPU-Sim PTX: Warning %p9 was declared previous at b+tree-rodinia-3.7.sm_30.ptx:29 skipping new declaration
GPGPU-Sim PTX: Warning %p10 was declared previous at b+tree-rodinia-3.7.sm_30.ptx:29 skipping new declaration
GPGPU-Sim PTX: Warning %p11 was declared previous at b+tree-rodinia-3.7.sm_30.ptx:29 skipping new declaration
GPGPU-Sim PTX: Warning %p12 was declared previous at b+tree-rodinia-3.7.sm_30.ptx:29 skipping new declaration
GPGPU-Sim PTX: Warning %p13 was declared previous at b+tree-rodinia-3.7.sm_30.ptx:29 skipping new declaration
GPGPU-Sim PTX: Warning %p14 was declared previous at b+tree-rodinia-3.7.sm_30.ptx:29 skipping new declaration
GPGPU-Sim PTX: Warning %p15 was declared previous at b+tree-rodinia-3.7.sm_30.ptx:29 skipping new declaration
GPGPU-Sim PTX: Warning %p16 was declared previous at b+tree-rodinia-3.7.sm_30.ptx:29 skipping new declaration
GPGPU-Sim PTX: Warning %p17 was declared previous at b+tree-rodinia-3.7.sm_30.ptx:29 skipping new declaration
GPGPU-Sim PTX: Warning %p18 was declared previous at b+tree-rodinia-3.7.sm_30.ptx:29 skipping new declaration
GPGPU-Sim PTX: Warning %p19 was declared previous at b+tree-rodinia-3.7.sm_30.ptx:29 skipping new declaration
GPGPU-Sim PTX: Warning %p20 was declared previous at b+tree-rodinia-3.7.sm_30.ptx:29 skipping new declaration
GPGPU-Sim PTX: Warning %p21 was declared previous at b+tree-rodinia-3.7.sm_30.ptx:29 skipping new declaration
GPGPU-Sim PTX: Warning %p22 was declared previous at b+tree-rodinia-3.7.sm_30.ptx:29 skipping new declaration
GPGPU-Sim PTX: Warning %p23 was declared previous at b+tree-rodinia-3.7.sm_30.ptx:29 skipping new declaration
GPGPU-Sim PTX: Warning %p24 was declared previous at b+tree-rodinia-3.7.sm_30.ptx:29 skipping new declaration
GPGPU-Sim PTX: Warning %p25 was declared previous at b+tree-rodinia-3.7.sm_30.ptx:29 skipping new declaration
GPGPU-Sim PTX: Warning %p26 was declared previous at b+tree-rodinia-3.7.sm_30.ptx:29 skipping new declaration
GPGPU-Sim PTX: Warning %p27 was declared previous at b+tree-rodinia-3.7.sm_30.ptx:29 skipping new declaration
GPGPU-Sim PTX: Warning %p28 was declared previous at b+tree-rodinia-3.7.sm_30.ptx:29 skipping new declaration
GPGPU-Sim PTX: Warning %p29 was declared previous at b+tree-rodinia-3.7.sm_30.ptx:29 skipping new declaration
GPGPU-Sim PTX: Warning %p30 was declared previous at b+tree-rodinia-3.7.sm_30.ptx:29 skipping new declaration
GPGPU-Sim PTX: Warning %p31 was declared previous at b+tree-rodinia-3.7.sm_30.ptx:29 skipping new declaration
GPGPU-Sim PTX: Warning %p32 was declared previous at b+tree-rodinia-3.7.sm_30.ptx:29 skipping new declaration
GPGPU-Sim PTX: Warning %p33 was declared previous at b+tree-rodinia-3.7.sm_30.ptx:29 skipping new declaration
GPGPU-Sim PTX: Warning %p34 was declared previous at b+tree-rodinia-3.7.sm_30.ptx:29 skipping new declaration
GPGPU-Sim PTX: Warning %p35 was declared previous at b+tree-rodinia-3.7.sm_30.ptx:29 skipping new declaration
GPGPU-Sim PTX: Warning %p36 was declared previous at b+tree-rodinia-3.7.sm_30.ptx:29 skipping new declaration
GPGPU-Sim PTX: Warning %p37 was declared previous at b+tree-rodinia-3.7.sm_30.ptx:29 skipping new declaration
GPGPU-Sim PTX: Warning %p38 was declared previous at b+tree-rodinia-3.7.sm_30.ptx:29 skipping new declaration
GPGPU-Sim PTX: Warning %p39 was declared previous at b+tree-rodinia-3.7.sm_30.ptx:29 skipping new declaration
GPGPU-Sim PTX: Warning %p40 was declared previous at b+tree-rodinia-3.7.sm_30.ptx:29 skipping new declaration
GPGPU-Sim PTX: Warning %p41 was declared previous at b+tree-rodinia-3.7.sm_30.ptx:29 skipping new declaration
GPGPU-Sim PTX: Warning %p42 was declared previous at b+tree-rodinia-3.7.sm_30.ptx:29 skipping new declaration
GPGPU-Sim PTX: Warning %p43 was declared previous at b+tree-rodinia-3.7.sm_30.ptx:29 skipping new declaration
GPGPU-Sim PTX: Warning %p44 was declared previous at b+tree-rodinia-3.7.sm_30.ptx:29 skipping new declaration
GPGPU-Sim PTX: Warning %p45 was declared previous at b+tree-rodinia-3.7.sm_30.ptx:29 skipping new declaration
GPGPU-Sim PTX: Warning %p46 was declared previous at b+tree-rodinia-3.7.sm_30.ptx:29 skipping new declaration
GPGPU-Sim PTX: Warning %p47 was declared previous at b+tree-rodinia-3.7.sm_30.ptx:29 skipping new declaration
GPGPU-Sim PTX: Warning %p48 was declared previous at b+tree-rodinia-3.7.sm_30.ptx:29 skipping new declaration
GPGPU-Sim PTX: Warning %p49 was declared previous at b+tree-rodinia-3.7.sm_30.ptx:29 skipping new declaration
GPGPU-Sim PTX: Warning %p50 was declared previous at b+tree-rodinia-3.7.sm_30.ptx:29 skipping new declaration
GPGPU-Sim PTX: Warning %p51 was declared previous at b+tree-rodinia-3.7.sm_30.ptx:29 skipping new declaration
GPGPU-Sim PTX: Warning %p52 was declared previous at b+tree-rodinia-3.7.sm_30.ptx:29 skipping new declaration
GPGPU-Sim PTX: Warning %p53 was declared previous at b+tree-rodinia-3.7.sm_30.ptx:29 skipping new declaration
GPGPU-Sim PTX: Warning %p54 was declared previous at b+tree-rodinia-3.7.sm_30.ptx:29 skipping new declaration
GPGPU-Sim PTX: Warning %p55 was declared previous at b+tree-rodinia-3.7.sm_30.ptx:29 skipping new declaration
GPGPU-Sim PTX: Warning %p56 was declared previous at b+tree-rodinia-3.7.sm_30.ptx:29 skipping new declaration
GPGPU-Sim PTX: Warning %p57 was declared previous at b+tree-rodinia-3.7.sm_30.ptx:29 skipping new declaration
GPGPU-Sim PTX: Warning %r0 was declared previous at b+tree-rodinia-3.7.sm_30.ptx:30 skipping new declaration
GPGPU-Sim PTX: Warning %r1 was declared previous at b+tree-rodinia-3.7.sm_30.ptx:30 skipping new declaration
GPGPU-Sim PTX: Warning %r2 was declared previous at b+tree-rodinia-3.7.sm_30.ptx:30 skipping new declaration
GPGPU-Sim PTX: Warning %r3 was declared previous at b+tree-rodinia-3.7.sm_30.ptx:30 skipping new declaration
GPGPU-Sim PTX: Warning %r4 was declared previous at b+tree-rodinia-3.7.sm_30.ptx:30 skipping new declaration
GPGPU-Sim PTX: Warning %r5 was declared previous at b+tree-rodinia-3.7.sm_30.ptx:30 skipping new declaration
GPGPU-Sim PTX: Warning %r6 was declared previous at b+tree-rodinia-3.7.sm_30.ptx:30 skipping new declaration
GPGPU-Sim PTX: Warning %r7 was declared previous at b+tree-rodinia-3.7.sm_30.ptx:30 skipping new declaration
GPGPU-Sim PTX: Warning %r8 was declared previous at b+tree-rodinia-3.7.sm_30.ptx:30 skipping new declaration
GPGPU-Sim PTX: Warning %r9 was declared previous at b+tree-rodinia-3.7.sm_30.ptx:30 skipping new declaration
GPGPU-Sim PTX: Warning %r10 was declared previous at b+tree-rodinia-3.7.sm_30.ptx:30 skipping new declaration
GPGPU-Sim PTX: Warning %r11 was declared previous at b+tree-rodinia-3.7.sm_30.ptx:30 skipping new declaration
GPGPU-Sim PTX: Warning %r12 was declared previous at b+tree-rodinia-3.7.sm_30.ptx:30 skipping new declaration
GPGPU-Sim PTX: Warning %r13 was declared previous at b+tree-rodinia-3.7.sm_30.ptx:30 skipping new declaration
GPGPU-Sim PTX: Warning %r14 was declared previous at b+tree-rodinia-3.7.sm_30.ptx:30 skipping new declaration
GPGPU-Sim PTX: Warning %r15 was declared previous at b+tree-rodinia-3.7.sm_30.ptx:30 skipping new declaration
GPGPU-Sim PTX: Warning %r16 was declared previous at b+tree-rodinia-3.7.sm_30.ptx:30 skipping new declaration
GPGPU-Sim PTX: Warning %r17 was declared previous at b+tree-rodinia-3.7.sm_30.ptx:30 skipping new declaration
GPGPU-Sim PTX: Warning %r18 was declared previous at b+tree-rodinia-3.7.sm_30.ptx:30 skipping new declaration
GPGPU-Sim PTX: Warning %r19 was declared previous at b+tree-rodinia-3.7.sm_30.ptx:30 skipping new declaration
GPGPU-Sim PTX: Warning %r20 was declared previous at b+tree-rodinia-3.7.sm_30.ptx:30 skipping new declaration
GPGPU-Sim PTX: Warning %r21 was declared previous at b+tree-rodinia-3.7.sm_30.ptx:30 skipping new declaration
GPGPU-Sim PTX: Warning %r22 was declared previous at b+tree-rodinia-3.7.sm_30.ptx:30 skipping new declaration
GPGPU-Sim PTX: Warning %r23 was declared previous at b+tree-rodinia-3.7.sm_30.ptx:30 skipping new declaration
GPGPU-Sim PTX: Warning %r24 was declared previous at b+tree-rodinia-3.7.sm_30.ptx:30 skipping new declaration
GPGPU-Sim PTX: Warning %r25 was declared previous at b+tree-rodinia-3.7.sm_30.ptx:30 skipping new declaration
GPGPU-Sim PTX: Warning %r26 was declared previous at b+tree-rodinia-3.7.sm_30.ptx:30 skipping new declaration
GPGPU-Sim PTX: Warning %r27 was declared previous at b+tree-rodinia-3.7.sm_30.ptx:30 skipping new declaration
GPGPU-Sim PTX: Warning %r28 was declared previous at b+tree-rodinia-3.7.sm_30.ptx:30 skipping new declaration
GPGPU-Sim PTX: Warning %r29 was declared previous at b+tree-rodinia-3.7.sm_30.ptx:30 skipping new declaration
GPGPU-Sim PTX: Warning %r30 was declared previous at b+tree-rodinia-3.7.sm_30.ptx:30 skipping new declaration
GPGPU-Sim PTX: Warning %r31 was declared previous at b+tree-rodinia-3.7.sm_30.ptx:30 skipping new declaration
GPGPU-Sim PTX: Warning %r32 was declared previous at b+tree-rodinia-3.7.sm_30.ptx:30 skipping new declaration
GPGPU-Sim PTX: Warning %r33 was declared previous at b+tree-rodinia-3.7.sm_30.ptx:30 skipping new declaration
GPGPU-Sim PTX: Warning %r34 was declared previous at b+tree-rodinia-3.7.sm_30.ptx:30 skipping new declaration
GPGPU-Sim PTX: Warning %r35 was declared previous at b+tree-rodinia-3.7.sm_30.ptx:30 skipping new declaration
GPGPU-Sim PTX: Warning %r36 was declared previous at b+tree-rodinia-3.7.sm_30.ptx:30 skipping new declaration
GPGPU-Sim PTX: Warning %r37 was declared previous at b+tree-rodinia-3.7.sm_30.ptx:30 skipping new declaration
GPGPU-Sim PTX: Warning %r38 was declared previous at b+tree-rodinia-3.7.sm_30.ptx:30 skipping new declaration
GPGPU-Sim PTX: Warning %r39 was declared previous at b+tree-rodinia-3.7.sm_30.ptx:30 skipping new declaration
GPGPU-Sim PTX: Warning %r40 was declared previous at b+tree-rodinia-3.7.sm_30.ptx:30 skipping new declaration
GPGPU-Sim PTX: Warning %r41 was declared previous at b+tree-rodinia-3.7.sm_30.ptx:30 skipping new declaration
GPGPU-Sim PTX: Warning %r42 was declared previous at b+tree-rodinia-3.7.sm_30.ptx:30 skipping new declaration
GPGPU-Sim PTX: Warning %r43 was declared previous at b+tree-rodinia-3.7.sm_30.ptx:30 skipping new declaration
GPGPU-Sim PTX: Warning %r44 was declared previous at b+tree-rodinia-3.7.sm_30.ptx:30 skipping new declaration
GPGPU-Sim PTX: Warning %r45 was declared previous at b+tree-rodinia-3.7.sm_30.ptx:30 skipping new declaration
GPGPU-Sim PTX: Warning %r46 was declared previous at b+tree-rodinia-3.7.sm_30.ptx:30 skipping new declaration
GPGPU-Sim PTX: Warning %r47 was declared previous at b+tree-rodinia-3.7.sm_30.ptx:30 skipping new declaration
GPGPU-Sim PTX: Warning %r48 was declared previous at b+tree-rodinia-3.7.sm_30.ptx:30 skipping new declaration
GPGPU-Sim PTX: Warning %r49 was declared previous at b+tree-rodinia-3.7.sm_30.ptx:30 skipping new declaration
GPGPU-Sim PTX: Warning %r50 was declared previous at b+tree-rodinia-3.7.sm_30.ptx:30 skipping new declaration
GPGPU-Sim PTX: Warning %r51 was declared previous at b+tree-rodinia-3.7.sm_30.ptx:30 skipping new declaration
GPGPU-Sim PTX: Warning %r52 was declared previous at b+tree-rodinia-3.7.sm_30.ptx:30 skipping new declaration
GPGPU-Sim PTX: Warning %r53 was declared previous at b+tree-rodinia-3.7.sm_30.ptx:30 skipping new declaration
GPGPU-Sim PTX: Warning %r54 was declared previous at b+tree-rodinia-3.7.sm_30.ptx:30 skipping new declaration
GPGPU-Sim PTX: Warning %r55 was declared previous at b+tree-rodinia-3.7.sm_30.ptx:30 skipping new declaration
GPGPU-Sim PTX: Warning %r56 was declared previous at b+tree-rodinia-3.7.sm_30.ptx:30 skipping new declaration
GPGPU-Sim PTX: Warning %r57 was declared previous at b+tree-rodinia-3.7.sm_30.ptx:30 skipping new declaration
GPGPU-Sim PTX: Warning %r58 was declared previous at b+tree-rodinia-3.7.sm_30.ptx:30 skipping new declaration
GPGPU-Sim PTX: Warning %r59 was declared previous at b+tree-rodinia-3.7.sm_30.ptx:30 skipping new declaration
GPGPU-Sim PTX: Warning %r60 was declared previous at b+tree-rodinia-3.7.sm_30.ptx:30 skipping new declaration
GPGPU-Sim PTX: Warning %r61 was declared previous at b+tree-rodinia-3.7.sm_30.ptx:30 skipping new declaration
GPGPU-Sim PTX: Warning %r62 was declared previous at b+tree-rodinia-3.7.sm_30.ptx:30 skipping new declaration
GPGPU-Sim PTX: Warning %r63 was declared previous at b+tree-rodinia-3.7.sm_30.ptx:30 skipping new declaration
GPGPU-Sim PTX: Warning %r64 was declared previous at b+tree-rodinia-3.7.sm_30.ptx:30 skipping new declaration
GPGPU-Sim PTX: Warning %r65 was declared previous at b+tree-rodinia-3.7.sm_30.ptx:30 skipping new declaration
GPGPU-Sim PTX: Warning %r66 was declared previous at b+tree-rodinia-3.7.sm_30.ptx:30 skipping new declaration
GPGPU-Sim PTX: Warning %r67 was declared previous at b+tree-rodinia-3.7.sm_30.ptx:30 skipping new declaration
GPGPU-Sim PTX: Warning %r68 was declared previous at b+tree-rodinia-3.7.sm_30.ptx:30 skipping new declaration
GPGPU-Sim PTX: Warning %r69 was declared previous at b+tree-rodinia-3.7.sm_30.ptx:30 skipping new declaration
GPGPU-Sim PTX: Warning %r70 was declared previous at b+tree-rodinia-3.7.sm_30.ptx:30 skipping new declaration
GPGPU-Sim PTX: Warning %r71 was declared previous at b+tree-rodinia-3.7.sm_30.ptx:30 skipping new declaration
GPGPU-Sim PTX: Warning %r72 was declared previous at b+tree-rodinia-3.7.sm_30.ptx:30 skipping new declaration
GPGPU-Sim PTX: Warning %r73 was declared previous at b+tree-rodinia-3.7.sm_30.ptx:30 skipping new declaration
GPGPU-Sim PTX: Warning %r74 was declared previous at b+tree-rodinia-3.7.sm_30.ptx:30 skipping new declaration
GPGPU-Sim PTX: Warning %r75 was declared previous at b+tree-rodinia-3.7.sm_30.ptx:30 skipping new declaration
GPGPU-Sim PTX: Warning %r76 was declared previous at b+tree-rodinia-3.7.sm_30.ptx:30 skipping new declaration
GPGPU-Sim PTX: Warning %r77 was declared previous at b+tree-rodinia-3.7.sm_30.ptx:30 skipping new declaration
GPGPU-Sim PTX: Warning %r78 was declared previous at b+tree-rodinia-3.7.sm_30.ptx:30 skipping new declaration
GPGPU-Sim PTX: Warning %r79 was declared previous at b+tree-rodinia-3.7.sm_30.ptx:30 skipping new declaration
GPGPU-Sim PTX: Warning %r80 was declared previous at b+tree-rodinia-3.7.sm_30.ptx:30 skipping new declaration
GPGPU-Sim PTX: Warning %r81 was declared previous at b+tree-rodinia-3.7.sm_30.ptx:30 skipping new declaration
GPGPU-Sim PTX: Warning %r82 was declared previous at b+tree-rodinia-3.7.sm_30.ptx:30 skipping new declaration
GPGPU-Sim PTX: Warning %r83 was declared previous at b+tree-rodinia-3.7.sm_30.ptx:30 skipping new declaration
GPGPU-Sim PTX: Warning %r84 was declared previous at b+tree-rodinia-3.7.sm_30.ptx:30 skipping new declaration
GPGPU-Sim PTX: Warning %r85 was declared previous at b+tree-rodinia-3.7.sm_30.ptx:30 skipping new declaration
GPGPU-Sim PTX: Warning %r86 was declared previous at b+tree-rodinia-3.7.sm_30.ptx:30 skipping new declaration
GPGPU-Sim PTX: Warning %r87 was declared previous at b+tree-rodinia-3.7.sm_30.ptx:30 skipping new declaration
GPGPU-Sim PTX: Warning %r88 was declared previous at b+tree-rodinia-3.7.sm_30.ptx:30 skipping new declaration
GPGPU-Sim PTX: Warning %r89 was declared previous at b+tree-rodinia-3.7.sm_30.ptx:30 skipping new declaration
[...]
Bank_Level_Parallism = 4.171384
Bank_Level_Parallism_Col = 2.653498
Bank_Level_Parallism_Ready = 1.510614
write_to_read_ratio_blp_rw_average = 0.048335
GrpLevelPara = 1.984513 

BW Util details:
bwutil = 0.213264 
total_CMD = 60526 
util_bw = 12908 
Wasted_Col = 12211 
Wasted_Row = 3606 
Idle = 31801 

BW Util Bottlenecks: 
RCDc_limit = 16672 
RCDWRc_limit = 127 
WTRc_limit = 659 
RTWc_limit = 1552 
CCDLc_limit = 6367 
rwq = 0 
CCDLc_limit_alone = 6181 
WTRc_limit_alone = 599 
RTWc_limit_alone = 1426 

Commands details: 
total_CMD = 60526 
n_nop = 44740 
Read = 12752 
Write = 0 
L2_Alloc = 0 
L2_WB = 156 
n_act = 2833 
n_pre = 2817 
n_ref = 0 
n_req = 12791 
total_req = 12908 

Dual Bus Interface Util: 
issued_total_row = 5650 
issued_total_col = 12908 
Row_Bus_Util =  0.093348 
CoL_Bus_Util = 0.213264 
Either_Row_CoL_Bus_Util = 0.260814 
Issued_on_Two_Bus_Simul_Util = 0.045798 
issued_two_Eff = 0.175599 
queue_avg = 7.565278 


dram_util_bins: 0 0 0 0 0 0 0 0 0 0
dram_eff_bins: 0 0 0 0 0 0 0 0 0 0
mrqq: max=64 avg=7.56528
Memory Partition 29: 
Cache L2_bank_058:
MSHR contents

Cache L2_bank_059:
MSHR contents

In Dram Latency Queue (total = 0): 
DRAM[29]: 16 bks, busW=16 BL=2 CL=12, tRRD=3 tCCD=1, tRCD=12 tRAS=28 tRP=12 tRC=40
n_cmd=60526 n_nop=44953 n_act=2784 n_pre=2768 n_ref_event=0 n_req=12517 n_rd=12480 n_rd_L2_A=0 n_write=0 n_wr_bk=148 bw_util=0.2086
n_activity=31234 dram_eff=0.4043
bk0: 831a 53696i bk1: 770a 54334i bk2: 845a 53150i bk3: 870a 52385i bk4: 885a 53569i bk5: 825a 54478i bk6: 869a 54032i bk7: 816a 54163i bk8: 764a 54179i bk9: 719a 54406i bk10: 757a 54118i bk11: 752a 53926i bk12: 709a 54594i bk13: 720a 55135i bk14: 677a 54817i bk15: 671a 54728i 

------------------------------------------------------------------------

Row_Buffer_Locality = 0.777582
Row_Buffer_Locality_read = 0.779087
Row_Buffer_Locality_write = 0.270270
Bank_Level_Parallism = 4.088531
Bank_Level_Parallism_Col = 2.589853
Bank_Level_Parallism_Ready = 1.476006
write_to_read_ratio_blp_rw_average = 0.044280
GrpLevelPara = 1.945031 

BW Util details:
bwutil = 0.208638 
total_CMD = 60526 
util_bw = 12628 
Wasted_Col = 12087 
Wasted_Row = 3467 
Idle = 32344 

BW Util Bottlenecks: 
RCDc_limit = 16794 
RCDWRc_limit = 136 
WTRc_limit = 582 
RTWc_limit = 1273 
CCDLc_limit = 6128 
rwq = 0 
CCDLc_limit_alone = 5911 
WTRc_limit_alone = 509 
RTWc_limit_alone = 1129 

Commands details: 
total_CMD = 60526 
n_nop = 44953 
Read = 12480 
Write = 0 
L2_Alloc = 0 
L2_WB = 148 
n_act = 2784 
n_pre = 2768 
n_ref = 0 
n_req = 12517 
total_req = 12628 

Dual Bus Interface Util: 
issued_total_row = 5552 
issued_total_col = 12628 
Row_Bus_Util =  0.091729 
CoL_Bus_Util = 0.208638 
Either_Row_CoL_Bus_Util = 0.257294 
Issued_on_Two_Bus_Simul_Util = 0.043072 
issued_two_Eff = 0.167405 
queue_avg = 6.888031 


dram_util_bins: 0 0 0 0 0 0 0 0 0 0
dram_eff_bins: 0 0 0 0 0 0 0 0 0 0
mrqq: max=64 avg=6.88803
Memory Partition 30: 
Cache L2_bank_060:
MSHR contents

Cache L2_bank_061:
MSHR contents

In Dram Latency Queue (total = 0): 
DRAM[30]: 16 bks, busW=16 BL=2 CL=12, tRRD=3 tCCD=1, tRCD=12 tRAS=28 tRP=12 tRC=40
n_cmd=60526 n_nop=45073 n_act=2793 n_pre=2777 n_ref_event=0 n_req=12328 n_rd=12290 n_rd_L2_A=0 n_write=0 n_wr_bk=152 bw_util=0.2056
n_activity=31784 dram_eff=0.3915
bk0: 837a 53329i bk1: 747a 55039i bk2: 859a 52966i bk3: 864a 53051i bk4: 819a 53766i bk5: 823a 53353i bk6: 837a 54022i bk7: 830a 54240i bk8: 802a 53538i bk9: 736a 53429i bk10: 743a 54011i bk11: 736a 54891i bk12: 638a 55152i bk13: 705a 54250i bk14: 653a 54697i bk15: 661a 55279i 

------------------------------------------------------------------------

Row_Buffer_Locality = 0.773443
Row_Buffer_Locality_read = 0.775183
Row_Buffer_Locality_write = 0.210526
Bank_Level_Parallism = 4.057605
Bank_Level_Parallism_Col = 2.560424
Bank_Level_Parallism_Ready = 1.460698
write_to_read_ratio_blp_rw_average = 0.042409
GrpLevelPara = 1.920512 

BW Util details:
bwutil = 0.205565 
total_CMD = 60526 
util_bw = 12442 
Wasted_Col = 12413 
Wasted_Row = 3667 
Idle = 32004 

BW Util Bottlenecks: 
RCDc_limit = 17178 
RCDWRc_limit = 135 
WTRc_limit = 545 
RTWc_limit = 1278 
CCDLc_limit = 6305 
rwq = 0 
CCDLc_limit_alone = 6132 
WTRc_limit_alone = 498 
RTWc_limit_alone = 1152 

Commands details: 
total_CMD = 60526 
n_nop = 45073 
Read = 12290 
Write = 0 
L2_Alloc = 0 
L2_WB = 152 
n_act = 2793 
n_pre = 2777 
n_ref = 0 
n_req = 12328 
total_req = 12442 

Dual Bus Interface Util: 
issued_total_row = 5570 
issued_total_col = 12442 
Row_Bus_Util =  0.092027 
CoL_Bus_Util = 0.205565 
Either_Row_CoL_Bus_Util = 0.255312 
Issued_on_Two_Bus_Simul_Util = 0.042279 
issued_two_Eff = 0.165599 
queue_avg = 6.185573 


dram_util_bins: 0 0 0 0 0 0 0 0 0 0
dram_eff_bins: 0 0 0 0 0 0 0 0 0 0
mrqq: max=64 avg=6.18557
Memory Partition 31: 
Cache L2_bank_062:
MSHR contents

Cache L2_bank_063:
MSHR contents

In Dram Latency Queue (total = 0): 
DRAM[31]: 16 bks, busW=16 BL=2 CL=12, tRRD=3 tCCD=1, tRCD=12 tRAS=28 tRP=12 tRC=40
n_cmd=60526 n_nop=44914 n_act=2795 n_pre=2779 n_ref_event=0 n_req=12506 n_rd=12465 n_rd_L2_A=0 n_write=0 n_wr_bk=164 bw_util=0.2087
n_activity=31354 dram_eff=0.4028
bk0: 823a 53940i bk1: 803a 54005i bk2: 829a 52585i bk3: 814a 53777i bk4: 827a 54154i bk5: 835a 54564i bk6: 832a 54429i bk7: 917a 53418i bk8: 769a 53354i bk9: 699a 54103i bk10: 816a 53494i bk11: 772a 53913i bk12: 614a 54735i bk13: 781a 54335i bk14: 638a 54800i bk15: 696a 54158i 

------------------------------------------------------------------------

Row_Buffer_Locality = 0.776507
Row_Buffer_Locality_read = 0.778099
Row_Buffer_Locality_write = 0.292683
Bank_Level_Parallism = 4.165766
Bank_Level_Parallism_Col = 2.618197
Bank_Level_Parallism_Ready = 1.502653
write_to_read_ratio_blp_rw_average = 0.045773
GrpLevelPara = 1.953611 

BW Util details:
bwutil = 0.208654 
total_CMD = 60526 
util_bw = 12629 
Wasted_Col = 12248 
Wasted_Row = 3247 
Idle = 32402 

BW Util Bottlenecks: 
RCDc_limit = 17000 
RCDWRc_limit = 150 
WTRc_limit = 730 
RTWc_limit = 1382 
CCDLc_limit = 6496 
rwq = 0 
CCDLc_limit_alone = 6333 
WTRc_limit_alone = 687 
RTWc_limit_alone = 1262 

Commands details: 
total_CMD = 60526 
n_nop = 44914 
Read = 12465 
Write = 0 
L2_Alloc = 0 
L2_WB = 164 
n_act = 2795 
n_pre = 2779 
n_ref = 0 
n_req = 12506 
total_req = 12629 

Dual Bus Interface Util: 
issued_total_row = 5574 
issued_total_col = 12629 
Row_Bus_Util =  0.092093 
CoL_Bus_Util = 0.208654 
Either_Row_CoL_Bus_Util = 0.257939 
Issued_on_Two_Bus_Simul_Util = 0.042808 
issued_two_Eff = 0.165962 
queue_avg = 6.543964 


dram_util_bins: 0 0 0 0 0 0 0 0 0 0
dram_eff_bins: 0 0 0 0 0 0 0 0 0 0
mrqq: max=64 avg=6.54396

========= L2 cache stats =========
L2_cache_bank[0]: Access = 25319, Miss = 6266, Miss_rate = 0.247, Pending_hits = 141, Reservation_fails = 214
L2_cache_bank[1]: Access = 26508, Miss = 6001, Miss_rate = 0.226, Pending_hits = 150, Reservation_fails = 6
L2_cache_bank[2]: Access = 25030, Miss = 6261, Miss_rate = 0.250, Pending_hits = 148, Reservation_fails = 33
L2_cache_bank[3]: Access = 26487, Miss = 6238, Miss_rate = 0.236, Pending_hits = 130, Reservation_fails = 0
L2_cache_bank[4]: Access = 27874, Miss = 6569, Miss_rate = 0.236, Pending_hits = 139, Reservation_fails = 0
L2_cache_bank[5]: Access = 28257, Miss = 6574, Miss_rate = 0.233, Pending_hits = 147, Reservation_fails = 0
L2_cache_bank[6]: Access = 28142, Miss = 6387, Miss_rate = 0.227, Pending_hits = 124, Reservation_fails = 0
L2_cache_bank[7]: Access = 29586, Miss = 6590, Miss_rate = 0.223, Pending_hits = 171, Reservation_fails = 0
L2_cache_bank[8]: Access = 24034, Miss = 6598, Miss_rate = 0.275, Pending_hits = 123, Reservation_fails = 0
L2_cache_bank[9]: Access = 23557, Miss = 6534, Miss_rate = 0.277, Pending_hits = 145, Reservation_fails = 0
L2_cache_bank[10]: Access = 23900, Miss = 6514, Miss_rate = 0.273, Pending_hits = 126, Reservation_fails = 0
L2_cache_bank[11]: Access = 27301, Miss = 6473, Miss_rate = 0.237, Pending_hits = 186, Reservation_fails = 340
L2_cache_bank[12]: Access = 22116, Miss = 6271, Miss_rate = 0.284, Pending_hits = 152, Reservation_fails = 172
L2_cache_bank[13]: Access = 22373, Miss = 6307, Miss_rate = 0.282, Pending_hits = 124, Reservation_fails = 0
L2_cache_bank[14]: Access = 20994, Miss = 6441, Miss_rate = 0.307, Pending_hits = 121, Reservation_fails = 0
L2_cache_bank[15]: Access = 21364, Miss = 6436, Miss_rate = 0.301, Pending_hits = 175, Reservation_fails = 77
L2_cache_bank[16]: Access = 30067, Miss = 6112, Miss_rate = 0.203, Pending_hits = 169, Reservation_fails = 710
L2_cache_bank[17]: Access = 27446, Miss = 6198, Miss_rate = 0.226, Pending_hits = 187, Reservation_fails = 86
L2_cache_bank[18]: Access = 29745, Miss = 6190, Miss_rate = 0.208, Pending_hits = 201, Reservation_fails = 469
L2_cache_bank[19]: Access = 27026, Miss = 6348, Miss_rate = 0.235, Pending_hits = 196, Reservation_fails = 0
L2_cache_bank[20]: Access = 32567, Miss = 6360, Miss_rate = 0.195, Pending_hits = 178, Reservation_fails = 484
L2_cache_bank[21]: Access = 28229, Miss = 6292, Miss_rate = 0.223, Pending_hits = 177, Reservation_fails = 125
L2_cache_bank[22]: Access = 32813, Miss = 6331, Miss_rate = 0.193, Pending_hits = 200, Reservation_fails = 941
L2_cache_bank[23]: Access = 29144, Miss = 6334, Miss_rate = 0.217, Pending_hits = 162, Reservation_fails = 422
L2_cache_bank[24]: Access = 23041, Miss = 6487, Miss_rate = 0.282, Pending_hits = 171, Reservation_fails = 0
L2_cache_bank[25]: Access = 22672, Miss = 6671, Miss_rate = 0.294, Pending_hits = 211, Reservation_fails = 281
L2_cache_bank[26]: Access = 22995, Miss = 6416, Miss_rate = 0.279, Pending_hits = 189, Reservation_fails = 0
L2_cache_bank[27]: Access = 23154, Miss = 6507, Miss_rate = 0.281, Pending_hits = 258, Reservation_fails = 464
L2_cache_bank[28]: Access = 24967, Miss = 6147, Miss_rate = 0.246, Pending_hits = 179, Reservation_fails = 67
L2_cache_bank[29]: Access = 22520, Miss = 6350, Miss_rate = 0.282, Pending_hits = 210, Reservation_fails = 157
L2_cache_bank[30]: Access = 21510, Miss = 6409, Miss_rate = 0.298, Pending_hits = 182, Reservation_fails = 0
L2_cache_bank[31]: Access = 21167, Miss = 6442, Miss_rate = 0.304, Pending_hits = 211, Reservation_fails = 58
L2_cache_bank[32]: Access = 25207, Miss = 6132, Miss_rate = 0.243, Pending_hits = 143, Reservation_fails = 95
L2_cache_bank[33]: Access = 25859, Miss = 5858, Miss_rate = 0.227, Pending_hits = 131, Reservation_fails = 0
L2_cache_bank[34]: Access = 25068, Miss = 6082, Miss_rate = 0.243, Pending_hits = 86, Reservation_fails = 42
L2_cache_bank[35]: Access = 25791, Miss = 5932, Miss_rate = 0.230, Pending_hits = 131, Reservation_fails = 0
L2_cache_bank[36]: Access = 27670, Miss = 6277, Miss_rate = 0.227, Pending_hits = 153, Reservation_fails = 170
L2_cache_bank[37]: Access = 26553, Miss = 6235, Miss_rate = 0.235, Pending_hits = 151, Reservation_fails = 0
L2_cache_bank[38]: Access = 27314, Miss = 6310, Miss_rate = 0.231, Pending_hits = 108, Reservation_fails = 161
L2_cache_bank[39]: Access = 27225, Miss = 6117, Miss_rate = 0.225, Pending_hits = 99, Reservation_fails = 0
L2_cache_bank[40]: Access = 23229, Miss = 6324, Miss_rate = 0.272, Pending_hits = 140, Reservation_fails = 238
L2_cache_bank[41]: Access = 22205, Miss = 6381, Miss_rate = 0.287, Pending_hits = 108, Reservation_fails = 0
L2_cache_bank[42]: Access = 23110, Miss = 5961, Miss_rate = 0.258, Pending_hits = 162, Reservation_fails = 81
L2_cache_bank[43]: Access = 22094, Miss = 6500, Miss_rate = 0.294, Pending_hits = 111, Reservation_fails = 0
L2_cache_bank[44]: Access = 20694, Miss = 6170, Miss_rate = 0.298, Pending_hits = 141, Reservation_fails = 90
L2_cache_bank[45]: Access = 21838, Miss = 6188, Miss_rate = 0.283, Pending_hits = 121, Reservation_fails = 0
L2_cache_bank[46]: Access = 21288, Miss = 6183, Miss_rate = 0.290, Pending_hits = 184, Reservation_fails = 0
L2_cache_bank[47]: Access = 20944, Miss = 6236, Miss_rate = 0.298, Pending_hits = 144, Reservation_fails = 82
L2_cache_bank[48]: Access = 26362, Miss = 5919, Miss_rate = 0.225, Pending_hits = 110, Reservation_fails = 0
L2_cache_bank[49]: Access = 31892, Miss = 6341, Miss_rate = 0.199, Pending_hits = 191, Reservation_fails = 238
L2_cache_bank[50]: Access = 25419, Miss = 5954, Miss_rate = 0.234, Pending_hits = 154, Reservation_fails = 0
L2_cache_bank[51]: Access = 26430, Miss = 6291, Miss_rate = 0.238, Pending_hits = 198, Reservation_fails = 0
L2_cache_bank[52]: Access = 28305, Miss = 5955, Miss_rate = 0.210, Pending_hits = 129, Reservation_fails = 0
L2_cache_bank[53]: Access = 32566, Miss = 6450, Miss_rate = 0.198, Pending_hits = 163, Reservation_fails = 226
L2_cache_bank[54]: Access = 28502, Miss = 5854, Miss_rate = 0.205, Pending_hits = 153, Reservation_fails = 0
L2_cache_bank[55]: Access = 32705, Miss = 6354, Miss_rate = 0.194, Pending_hits = 198, Reservation_fails = 489
L2_cache_bank[56]: Access = 22394, Miss = 6266, Miss_rate = 0.280, Pending_hits = 145, Reservation_fails = 232
L2_cache_bank[57]: Access = 26327, Miss = 6661, Miss_rate = 0.253, Pending_hits = 164, Reservation_fails = 608
L2_cache_bank[58]: Access = 22882, Miss = 6333, Miss_rate = 0.277, Pending_hits = 137, Reservation_fails = 68
L2_cache_bank[59]: Access = 21607, Miss = 6339, Miss_rate = 0.293, Pending_hits = 136, Reservation_fails = 0
L2_cache_bank[60]: Access = 21127, Miss = 6035, Miss_rate = 0.286, Pending_hits = 107, Reservation_fails = 0
L2_cache_bank[61]: Access = 21242, Miss = 6319, Miss_rate = 0.297, Pending_hits = 144, Reservation_fails = 504
L2_cache_bank[62]: Access = 20506, Miss = 6260, Miss_rate = 0.305, Pending_hits = 151, Reservation_fails = 88
L2_cache_bank[63]: Access = 20846, Miss = 6301, Miss_rate = 0.302, Pending_hits = 150, Reservation_fails = 223
L2_total_cache_accesses = 1617106
L2_total_cache_misses = 402572
L2_total_cache_miss_rate = 0.2489
L2_total_cache_pending_hits = 9926
L2_total_cache_reservation_fails = 8741
L2_total_cache_breakdown:
	L2_cache_stats_breakdown[GLOBAL_ACC_R][HIT] = 1101481
	L2_cache_stats_breakdown[GLOBAL_ACC_R][HIT_RESERVED] = 9842
	L2_cache_stats_breakdown[GLOBAL_ACC_R][MISS] = 125122
	L2_cache_stats_breakdown[GLOBAL_ACC_R][RESERVATION_FAIL] = 8741
	L2_cache_stats_breakdown[GLOBAL_ACC_R][SECTOR_MISS] = 270661
	L2_cache_stats_breakdown[GLOBAL_ACC_R][MSHR_HIT] = 9842
	L2_cache_stats_breakdown[LOCAL_ACC_R][HIT] = 0
	L2_cache_stats_breakdown[LOCAL_ACC_R][HIT_RESERVED] = 0
	L2_cache_stats_breakdown[LOCAL_ACC_R][MISS] = 0
	L2_cache_stats_breakdown[LOCAL_ACC_R][RESERVATION_FAIL] = 0
	L2_cache_stats_breakdown[LOCAL_ACC_R][SECTOR_MISS] = 0
	L2_cache_stats_breakdown[LOCAL_ACC_R][MSHR_HIT] = 0
	L2_cache_stats_breakdown[CONST_ACC_R][HIT] = 0
	L2_cache_stats_breakdown[CONST_ACC_R][HIT_RESERVED] = 0
	L2_cache_stats_breakdown[CONST_ACC_R][MISS] = 0
	L2_cache_stats_breakdown[CONST_ACC_R][RESERVATION_FAIL] = 0
	L2_cache_stats_breakdown[CONST_ACC_R][SECTOR_MISS] = 0
	L2_cache_stats_breakdown[CONST_ACC_R][MSHR_HIT] = 0
	L2_cache_stats_breakdown[TEXTURE_ACC_R][HIT] = 0
	L2_cache_stats_breakdown[TEXTURE_ACC_R][HIT_RESERVED] = 0
	L2_cache_stats_breakdown[TEXTURE_ACC_R][MISS] = 0
	L2_cache_stats_breakdown[TEXTURE_ACC_R][RESERVATION_FAIL] = 0
	L2_cache_stats_breakdown[TEXTURE_ACC_R][SECTOR_MISS] = 0
	L2_cache_stats_breakdown[TEXTURE_ACC_R][MSHR_HIT] = 0
	L2_cache_stats_breakdown[GLOBAL_ACC_W][HIT] = 103127
	L2_cache_stats_breakdown[GLOBAL_ACC_W][HIT_RESERVED] = 84
	L2_cache_stats_breakdown[GLOBAL_ACC_W][MISS] = 252
	L2_cache_stats_breakdown[GLOBAL_ACC_W][RESERVATION_FAIL] = 0
	L2_cache_stats_breakdown[GLOBAL_ACC_W][SECTOR_MISS] = 6537
	L2_cache_stats_breakdown[GLOBAL_ACC_W][MSHR_HIT] = 0
	L2_cache_stats_breakdown[LOCAL_ACC_W][HIT] = 0
	L2_cache_stats_breakdown[LOCAL_ACC_W][HIT_RESERVED] = 0
	L2_cache_stats_breakdown[LOCAL_ACC_W][MISS] = 0
	L2_cache_stats_breakdown[LOCAL_ACC_W][RESERVATION_FAIL] = 0
	L2_cache_stats_breakdown[LOCAL_ACC_W][SECTOR_MISS] = 0
	L2_cache_stats_breakdown[LOCAL_ACC_W][MSHR_HIT] = 0
	L2_cache_stats_breakdown[L1_WRBK_ACC][HIT] = 0
	L2_cache_stats_breakdown[L1_WRBK_ACC][HIT_RESERVED] = 0
	L2_cache_stats_breakdown[L1_WRBK_ACC][MISS] = 0
	L2_cache_stats_breakdown[L1_WRBK_ACC][RESERVATION_FAIL] = 0
	L2_cache_stats_breakdown[L1_WRBK_ACC][SECTOR_MISS] = 0
	L2_cache_stats_breakdown[L1_WRBK_ACC][MSHR_HIT] = 0
	L2_cache_stats_breakdown[L2_WRBK_ACC][HIT] = 0
	L2_cache_stats_breakdown[L2_WRBK_ACC][HIT_RESERVED] = 0
	L2_cache_stats_breakdown[L2_WRBK_ACC][MISS] = 0
	L2_cache_stats_breakdown[L2_WRBK_ACC][RESERVATION_FAIL] = 0
	L2_cache_stats_breakdown[L2_WRBK_ACC][SECTOR_MISS] = 0
	L2_cache_stats_breakdown[L2_WRBK_ACC][MSHR_HIT] = 0
	L2_cache_stats_breakdown[INST_ACC_R][HIT] = 0
	L2_cache_stats_breakdown[INST_ACC_R][HIT_RESERVED] = 0
	L2_cache_stats_breakdown[INST_ACC_R][MISS] = 0
	L2_cache_stats_breakdown[INST_ACC_R][RESERVATION_FAIL] = 0
	L2_cache_stats_breakdown[INST_ACC_R][SECTOR_MISS] = 0
	L2_cache_stats_breakdown[INST_ACC_R][MSHR_HIT] = 0
	L2_cache_stats_breakdown[L1_WR_ALLOC_R][HIT] = 0
	L2_cache_stats_breakdown[L1_WR_ALLOC_R][HIT_RESERVED] = 0
	L2_cache_stats_breakdown[L1_WR_ALLOC_R][MISS] = 0
	L2_cache_stats_breakdown[L1_WR_ALLOC_R][RESERVATION_FAIL] = 0
	L2_cache_stats_breakdown[L1_WR_ALLOC_R][SECTOR_MISS] = 0
	L2_cache_stats_breakdown[L1_WR_ALLOC_R][MSHR_HIT] = 0
	L2_cache_stats_breakdown[L2_WR_ALLOC_R][HIT] = 0
	L2_cache_stats_breakdown[L2_WR_ALLOC_R][HIT_RESERVED] = 0
	L2_cache_stats_breakdown[L2_WR_ALLOC_R][MISS] = 0
	L2_cache_stats_breakdown[L2_WR_ALLOC_R][RESERVATION_FAIL] = 0
	L2_cache_stats_breakdown[L2_WR_ALLOC_R][SECTOR_MISS] = 0
	L2_cache_stats_breakdown[L2_WR_ALLOC_R][MSHR_HIT] = 0
	L2_cache_stats_breakdown[GLOBAL_ACC_R][TOTAL_ACCESS] = 1516948
	L2_cache_stats_breakdown[GLOBAL_ACC_W][TOTAL_ACCESS] = 110000
L2_total_cache_reservation_fail_breakdown:
	L2_cache_stats_fail_breakdown[GLOBAL_ACC_R][MSHR_MERGE_ENRTY_FAIL] = 8741
L2_cache_data_port_util = 0.234
L2_cache_fill_port_util = 0.077

icnt_total_pkts_mem_to_simt=1617106
icnt_total_pkts_simt_to_mem=1617106
LD_mem_lat_dist  0 0 0 0 0 0 0 0 0 0 0 0 0 0 0 0 0 0 0 0 0 0 0 0 0 0 0
ST_mem_lat_dist  0 0 0 0 0 0 0 0 0 0 0 0 0 0 0 0 0 0 0 0 0 0 0 0 0 0 0
----------------------------Interconnect-DETAILS--------------------------------
Req_Network_injected_packets_num = 1617106
Req_Network_cycles = 80607
Req_Network_injected_packets_per_cycle =      20.0616 
Req_Network_conflicts_per_cycle =      39.0139
Req_Network_conflicts_per_cycle_util =      46.9400
Req_Bank_Level_Parallism =      24.1374
Req_Network_in_buffer_full_per_cycle =      34.2733
Req_Network_in_buffer_avg_util =     180.5750
Req_Network_out_buffer_full_per_cycle =       0.0020
Req_Network_out_buffer_avg_util =       2.0302

Reply_Network_injected_packets_num = 1617106
Reply_Network_cycles = 80607
Reply_Network_injected_packets_per_cycle =       20.0616
Reply_Network_conflicts_per_cycle =       20.0519
Reply_Network_conflicts_per_cycle_util =      24.2542
Reply_Bank_Level_Parallism =      24.2659
Reply_Network_in_buffer_full_per_cycle =       0.1550
Reply_Network_in_buffer_avg_util =      33.8278
Reply_Network_out_buffer_full_per_cycle =       0.0000
Reply_Network_out_buffer_avg_util =       0.2508
----------------------------END-of-Interconnect-DETAILS-------------------------


gpgpu_simulation_time = 0 days, 1 hrs, 20 min, 57 sec (4857 sec)
gpgpu_simulation_rate = 78421 (inst/sec)
gpgpu_simulation_rate = 16 (cycle/sec)
gpgpu_silicon_slowdown = 70750000x
GPGPU-Sim: synchronize waiting for inactive GPU simulation
GPGPU-Sim API: Stream Manager State
GPGPU-Sim: detected inactive GPU simulation thread
Time spent in different stages of GPU_CUDA KERNEL:
 0.000037000002 s,  0.000001782952 % : GPU: SET DEVICE / DRIVER INIT
 0.000008000000 s,  0.000000385503 % : GPU MEM: ALO
 1.186135053635 s,  0.057157348841 % : GPU MEM: COPY IN
2073.971923828125 s, 99.940345764160 % : GPU: KERNEL
 0.051766000688 s,  0.002494494664 % : GPU MEM: COPY OUT
 0.000000000000 s,  0.000000000000 % : GPU MEM: FRE
Total time:
2075.209960937500 s
> > > > > > > > > > 
GPGPU-Sim: *** exit detected ***
