Skipping setup_environment - already set
doing: export -n PTX_SIM_USE_PTX_FILE
doing: export LD_LIBRARY_PATH=/home/min/a/devlinc/Documents/ECE60827/hardware-sim-assgn-2/hardware-simulation-assignment-2-texashodlr/util/job_launching/../../sim_run_9.1/gpgpu-sim-builds/accelsim-commit-a5339f56558d282e0ff48181156f07c28d32c1b6_modified_0.0:/home/min/a/devlinc/Documents/ECE60827/hardware-sim-assgn-2/hardware-simulation-assignment-2-texashodlr/gpu-simulator/gpgpu-sim/lib/gcc-8.3.0/cuda-9010/release:/home/min/a/devlinc/Documents/ECE60827/hardware-sim-assgn-2/hardware-simulation-assignment-2-texashodlr/gpu-simulator/gpgpu-sim/lib/gcc-8.3.0/cuda-9010/release:/package/gcc/8.3.0/lib64:
doing: cd /home/min/a/devlinc/Documents/ECE60827/hardware-sim-assgn-2/hardware-simulation-assignment-2-texashodlr/util/job_launching/../../sim_run_9.1/b+tree-rodinia-3.1/file___data_mil_txt_command___data_command_txt/QV100-SASS-1B_INSN-8CLUSTER
doing: export OPENCL_CURRENT_TEST_PATH=/home/min/a/devlinc/Documents/ECE60827/hardware-sim-assgn-2/hardware-simulation-assignment-2-texashodlr/util/job_launching/../../sim_run_9.1/b+tree-rodinia-3.1/file___data_mil_txt_command___data_command_txt/QV100-SASS-1B_INSN-8CLUSTER
doing: export OPENCL_REMOTE_GPU_HOST=REPLACE_REMOTE_HOST
doing 
doing: export PATH=/home/min/a/devlinc/Documents/ECE60827/hardware-sim-assgn-2/hardware-simulation-assignment-2-texashodlr/gpu-simulator/gpgpu-sim/bin:/home/min/a/ee695paa/cuda/bin:/home/min/a/ee695paa/cuda/bin:/home/min/a/ee695paa/cuda/bin:/package/gcc/8.3.0/bin:/usr/lib64/qt-3.3/bin:/usr/lib64/ccache:/usr/local/bin:/usr/bin:/usr/local/sbin:/usr/sbin:.
doing export CUDA_LAUNCH_BLOCKING=1
doing:  /home/min/a/devlinc/Documents/ECE60827/hardware-sim-assgn-2/hardware-simulation-assignment-2-texashodlr/util/job_launching/../../sim_run_9.1/gpgpu-sim-builds/accelsim-commit-a5339f56558d282e0ff48181156f07c28d32c1b6_modified_0.0/accel-sim.out  -config ./gpgpusim.config -trace ./traces/kernelslist.g
Accel-Sim [build accelsim-commit-a5339f56558d282e0ff48181156f07c28d32c1b6_modified_0.0]

        *** GPGPU-Sim Simulator Version 4.0.0  [build gpgpu-sim_git-commit-a5339f56558d282e0ff48181156f07c28d32c1b6_modified_0.0] ***


GPGPU-Sim: Configuration options:

-save_embedded_ptx                      0 # saves ptx files embedded in binary as <n>.ptx
-keep                                   0 # keep intermediate files created by GPGPU-Sim when interfacing with external programs
-gpgpu_ptx_save_converted_ptxplus                    0 # Saved converted ptxplus to a file
-gpgpu_occupancy_sm_number                   70 # The SM number to pass to ptxas when getting register usage for computing GPU occupancy. This parameter is required in the config.
-ptx_opcode_latency_int      4,13,4,5,145,21 # Opcode latencies for integers <ADD,MAX,MUL,MAD,DIV,SHFL>Default 1,1,19,25,145,32
-ptx_opcode_latency_fp          4,13,4,5,39 # Opcode latencies for single precision floating points <ADD,MAX,MUL,MAD,DIV>Default 1,1,1,1,30
-ptx_opcode_latency_dp         8,19,8,8,330 # Opcode latencies for double precision floating points <ADD,MAX,MUL,MAD,DIV>Default 8,8,8,8,335
-ptx_opcode_latency_sfu                  100 # Opcode latencies for SFU instructionsDefault 8
-ptx_opcode_latency_tesnor                   64 # Opcode latencies for Tensor instructionsDefault 64
-ptx_opcode_initiation_int          2,2,2,2,8,4 # Opcode initiation intervals for integers <ADD,MAX,MUL,MAD,DIV,SHFL>Default 1,1,4,4,32,4
-ptx_opcode_initiation_fp            2,2,2,2,4 # Opcode initiation intervals for single precision floating points <ADD,MAX,MUL,MAD,DIV>Default 1,1,1,1,5
-ptx_opcode_initiation_dp          4,4,4,4,130 # Opcode initiation intervals for double precision floating points <ADD,MAX,MUL,MAD,DIV>Default 8,8,8,8,130
-ptx_opcode_initiation_sfu                    8 # Opcode initiation intervals for sfu instructionsDefault 8
-ptx_opcode_initiation_tensor                   64 # Opcode initiation intervals for tensor instructionsDefault 64
-cdp_latency         7200,8000,100,12000,1600 # CDP API latency <cudaStreamCreateWithFlags, cudaGetParameterBufferV2_init_perWarp, cudaGetParameterBufferV2_perKernel, cudaLaunchDeviceV2_init_perWarp, cudaLaunchDevicV2_perKernel>Default 7200,8000,100,12000,1600
-network_mode                           2 # Interconnection network mode
-inter_config_file                   mesh # Interconnection network config file
-icnt_in_buffer_limit                  512 # in_buffer_limit
-icnt_out_buffer_limit                  512 # out_buffer_limit
-icnt_subnets                           2 # subnets
-icnt_arbiter_algo                      1 # arbiter_algo
-icnt_verbose                           0 # inct_verbose
-icnt_grant_cycles                      1 # grant_cycles
-gpgpu_ptx_use_cuobjdump                    1 # Use cuobjdump to extract ptx and sass from binaries
-gpgpu_experimental_lib_support                    0 # Try to extract code from cuda libraries [Broken because of unknown cudaGetExportTable]
-checkpoint_option                      0 #  checkpointing flag (0 = no checkpoint)
-checkpoint_kernel                      1 #  checkpointing during execution of which kernel (1- 1st kernel)
-checkpoint_CTA                         0 #  checkpointing after # of CTA (< less than total CTA)
-resume_option                          0 #  resume flag (0 = no resume)
-resume_kernel                          0 #  Resume from which kernel (1= 1st kernel)
-resume_CTA                             0 #  resume from which CTA 
-checkpoint_CTA_t                       0 #  resume from which CTA 
-checkpoint_insn_Y                      0 #  resume from which CTA 
-gpgpu_ptx_convert_to_ptxplus                    0 # Convert SASS (native ISA) to ptxplus and run ptxplus
-gpgpu_ptx_force_max_capability                   70 # Force maximum compute capability
-gpgpu_ptx_inst_debug_to_file                    0 # Dump executed instructions' debug information to file
-gpgpu_ptx_inst_debug_file       inst_debug.txt # Executed instructions' debug output file
-gpgpu_ptx_inst_debug_thread_uid                    1 # Thread UID for executed instructions' debug output
-gpgpu_simd_model                       1 # 1 = post-dominator
-gpgpu_shader_core_pipeline              2048:32 # shader core pipeline config, i.e., {<nthread>:<warpsize>}
-gpgpu_tex_cache:l1  N:4:128:256,L:R:m:N:L,T:512:8,128:2 # per-shader L1 texture cache  (READ-ONLY) config  {<nsets>:<bsize>:<assoc>,<rep>:<wr>:<alloc>:<wr_alloc>,<mshr>:<N>:<merge>,<mq>:<rf>}
-gpgpu_const_cache:l1 N:128:64:8,L:R:f:N:L,S:2:64,4 # per-shader L1 constant memory cache  (READ-ONLY) config  {<nsets>:<bsize>:<assoc>,<rep>:<wr>:<alloc>:<wr_alloc>,<mshr>:<N>:<merge>,<mq>} 
-gpgpu_cache:il1     N:64:128:16,L:R:f:N:L,S:2:48,4 # shader L1 instruction cache config  {<nsets>:<bsize>:<assoc>,<rep>:<wr>:<alloc>:<wr_alloc>,<mshr>:<N>:<merge>,<mq>} 
-gpgpu_cache:dl1     S:1:128:256,L:L:m:N:L,A:512:8,16:0,32 # per-shader L1 data cache config  {<nsets>:<bsize>:<assoc>,<rep>:<wr>:<alloc>:<wr_alloc>,<mshr>:<N>:<merge>,<mq> | none}
-gpgpu_l1_banks                         4 # The number of L1 cache banks
-gpgpu_l1_banks_byte_interleaving                   32 # l1 banks byte interleaving granularity
-gpgpu_l1_banks_hashing_function                    0 # l1 banks hashing function
-gpgpu_l1_latency                      20 # L1 Hit Latency
-gpgpu_smem_latency                    20 # smem Latency
-gpgpu_cache:dl1PrefL1                 none # per-shader L1 data cache config  {<nsets>:<bsize>:<assoc>,<rep>:<wr>:<alloc>:<wr_alloc>,<mshr>:<N>:<merge>,<mq> | none}
-gpgpu_cache:dl1PrefShared                 none # per-shader L1 data cache config  {<nsets>:<bsize>:<assoc>,<rep>:<wr>:<alloc>:<wr_alloc>,<mshr>:<N>:<merge>,<mq> | none}
-gpgpu_gmem_skip_L1D                    0 # global memory access skip L1D cache (implements -Xptxas -dlcm=cg, default=no skip)
-gpgpu_perfect_mem                      0 # enable perfect memory mode (no cache miss)
-n_regfile_gating_group                    4 # group of lanes that should be read/written together)
-gpgpu_clock_gated_reg_file                    0 # enable clock gated reg file for power calculations
-gpgpu_clock_gated_lanes                    0 # enable clock gated lanes for power calculations
-gpgpu_shader_registers                65536 # Number of registers per shader core. Limits number of concurrent CTAs. (default 8192)
-gpgpu_registers_per_block                65536 # Maximum number of registers per CTA. (default 8192)
-gpgpu_ignore_resources_limitation                    0 # gpgpu_ignore_resources_limitation (default 0)
-gpgpu_shader_cta                      32 # Maximum number of concurrent CTAs in shader (default 8)
-gpgpu_num_cta_barriers                   16 # Maximum number of named barriers per CTA (default 16)
-gpgpu_n_clusters                      80 # number of processing clusters
-gpgpu_n_cores_per_cluster                    8 # number of simd cores per cluster
-gpgpu_n_cluster_ejection_buffer_size                   32 # number of packets in ejection buffer
-gpgpu_n_ldst_response_buffer_size                    2 # number of response packets in ld/st unit ejection buffer
-gpgpu_shmem_per_block                65536 # Size of shared memory per thread block or CTA (default 48kB)
-gpgpu_shmem_size                   98304 # Size of shared memory per shader core (default 16kB)
-gpgpu_adaptive_cache_config                    1 # adaptive_cache_config
-gpgpu_shmem_sizeDefault                98304 # Size of shared memory per shader core (default 16kB)
-gpgpu_shmem_size_PrefL1                16384 # Size of shared memory per shader core (default 16kB)
-gpgpu_shmem_size_PrefShared                16384 # Size of shared memory per shader core (default 16kB)
-gpgpu_shmem_num_banks                   32 # Number of banks in the shared memory in each shader core (default 16)
-gpgpu_shmem_limited_broadcast                    0 # Limit shared memory to do one broadcast per cycle (default on)
-gpgpu_shmem_warp_parts                    1 # Number of portions a warp is divided into for shared memory bank conflict check 
-gpgpu_mem_unit_ports                    1 # The number of memory transactions allowed per core cycle
-gpgpu_shmem_warp_parts                    1 # Number of portions a warp is divided into for shared memory bank conflict check 
-gpgpu_warpdistro_shader                   -1 # Specify which shader core to collect the warp size distribution from
-gpgpu_warp_issue_shader                    0 # Specify which shader core to collect the warp issue distribution from
-gpgpu_local_mem_map                    1 # Mapping from local memory space address to simulated GPU physical address space (default = enabled)
-gpgpu_num_reg_banks                   16 # Number of register banks (default = 8)
-gpgpu_reg_bank_use_warp_id                    0 # Use warp ID in mapping registers to banks (default = off)
-gpgpu_sub_core_model                    1 # Sub Core Volta/Pascal model (default = off)
-gpgpu_enable_specialized_operand_collector                    0 # enable_specialized_operand_collector
-gpgpu_operand_collector_num_units_sp                    4 # number of collector units (default = 4)
-gpgpu_operand_collector_num_units_dp                    0 # number of collector units (default = 0)
-gpgpu_operand_collector_num_units_sfu                    4 # number of collector units (default = 4)
-gpgpu_operand_collector_num_units_int                    0 # number of collector units (default = 0)
-gpgpu_operand_collector_num_units_tensor_core                    4 # number of collector units (default = 4)
-gpgpu_operand_collector_num_units_mem                    2 # number of collector units (default = 2)
-gpgpu_operand_collector_num_units_gen                    8 # number of collector units (default = 0)
-gpgpu_operand_collector_num_in_ports_sp                    1 # number of collector unit in ports (default = 1)
-gpgpu_operand_collector_num_in_ports_dp                    0 # number of collector unit in ports (default = 0)
-gpgpu_operand_collector_num_in_ports_sfu                    1 # number of collector unit in ports (default = 1)
-gpgpu_operand_collector_num_in_ports_int                    0 # number of collector unit in ports (default = 0)
-gpgpu_operand_collector_num_in_ports_tensor_core                    1 # number of collector unit in ports (default = 1)
-gpgpu_operand_collector_num_in_ports_mem                    1 # number of collector unit in ports (default = 1)
-gpgpu_operand_collector_num_in_ports_gen                    8 # number of collector unit in ports (default = 0)
-gpgpu_operand_collector_num_out_ports_sp                    1 # number of collector unit in ports (default = 1)
-gpgpu_operand_collector_num_out_ports_dp                    0 # number of collector unit in ports (default = 0)
-gpgpu_operand_collector_num_out_ports_sfu                    1 # number of collector unit in ports (default = 1)
-gpgpu_operand_collector_num_out_ports_int                    0 # number of collector unit in ports (default = 0)
-gpgpu_operand_collector_num_out_ports_tensor_core                    1 # number of collector unit in ports (default = 1)
-gpgpu_operand_collector_num_out_ports_mem                    1 # number of collector unit in ports (default = 1)
-gpgpu_operand_collector_num_out_ports_gen                    8 # number of collector unit in ports (default = 0)
-gpgpu_coalesce_arch                   60 # Coalescing arch (GT200 = 13, Fermi = 20)
-gpgpu_num_sched_per_core                    4 # Number of warp schedulers per core
-gpgpu_max_insn_issue_per_warp                    1 # Max number of instructions that can be issued per warp in one cycle by scheduler (either 1 or 2)
-gpgpu_dual_issue_diff_exec_units                    1 # should dual issue use two different execution unit resources (Default = 1)
-gpgpu_simt_core_sim_order                    1 # Select the simulation order of cores in a cluster (0=Fix, 1=Round-Robin)
-gpgpu_pipeline_widths 4,4,4,4,4,4,4,4,4,4,8,4,4 # Pipeline widths ID_OC_SP,ID_OC_DP,ID_OC_INT,ID_OC_SFU,ID_OC_MEM,OC_EX_SP,OC_EX_DP,OC_EX_INT,OC_EX_SFU,OC_EX_MEM,EX_WB,ID_OC_TENSOR_CORE,OC_EX_TENSOR_CORE
-gpgpu_tensor_core_avail                    1 # Tensor Core Available (default=0)
-gpgpu_num_sp_units                     4 # Number of SP units (default=1)
-gpgpu_num_dp_units                     4 # Number of DP units (default=0)
-gpgpu_num_int_units                    4 # Number of INT units (default=0)
-gpgpu_num_sfu_units                    4 # Number of SF units (default=1)
-gpgpu_num_tensor_core_units                    4 # Number of tensor_core units (default=1)
-gpgpu_num_mem_units                    1 # Number if ldst units (default=1) WARNING: not hooked up to anything
-gpgpu_scheduler                      gto # Scheduler configuration: < lrr | gto | two_level_active > If two_level_active:<num_active_warps>:<inner_prioritization>:<outer_prioritization>For complete list of prioritization values see shader.h enum scheduler_prioritization_typeDefault: gto
-gpgpu_concurrent_kernel_sm                    0 # Support concurrent kernels on a SM (default = disabled)
-gpgpu_perfect_inst_const_cache                    1 # perfect inst and const cache mode, so all inst and const hits in the cache(default = disabled)
-gpgpu_inst_fetch_throughput                    4 # the number of fetched intruction per warp each cycle
-gpgpu_reg_file_port_throughput                    2 # the number ports of the register file
-specialized_unit_1         1,4,4,4,4,BRA # specialized unit config {<enabled>,<num_units>:<latency>:<initiation>,<ID_OC_SPEC>:<OC_EX_SPEC>,<NAME>}
-specialized_unit_2       1,4,200,4,4,TEX # specialized unit config {<enabled>,<num_units>:<latency>:<initiation>,<ID_OC_SPEC>:<OC_EX_SPEC>,<NAME>}
-specialized_unit_3      1,4,8,4,4,TENSOR # specialized unit config {<enabled>,<num_units>:<latency>:<initiation>,<ID_OC_SPEC>:<OC_EX_SPEC>,<NAME>}
-specialized_unit_4         0,4,4,4,4,BRA # specialized unit config {<enabled>,<num_units>:<latency>:<initiation>,<ID_OC_SPEC>:<OC_EX_SPEC>,<NAME>}
-specialized_unit_5         0,4,4,4,4,BRA # specialized unit config {<enabled>,<num_units>:<latency>:<initiation>,<ID_OC_SPEC>:<OC_EX_SPEC>,<NAME>}
-specialized_unit_6         0,4,4,4,4,BRA # specialized unit config {<enabled>,<num_units>:<latency>:<initiation>,<ID_OC_SPEC>:<OC_EX_SPEC>,<NAME>}
-specialized_unit_7         0,4,4,4,4,BRA # specialized unit config {<enabled>,<num_units>:<latency>:<initiation>,<ID_OC_SPEC>:<OC_EX_SPEC>,<NAME>}
-specialized_unit_8         0,4,4,4,4,BRA # specialized unit config {<enabled>,<num_units>:<latency>:<initiation>,<ID_OC_SPEC>:<OC_EX_SPEC>,<NAME>}
-gpgpu_perf_sim_memcpy                    1 # Fill the L2 cache on memcpy
-gpgpu_simple_dram_model                    0 # simple_dram_model with fixed latency and BW
-gpgpu_dram_scheduler                    1 # 0 = fifo, 1 = FR-FCFS (defaul)
-gpgpu_dram_partition_queues          64:64:64:64 # i2$:$2d:d2$:$2i
-l2_ideal                               0 # Use a ideal L2 cache that always hit
-gpgpu_cache:dl2     S:32:128:24,L:B:m:L:P,A:192:4,32:0,32 # unified banked L2 data cache config  {<nsets>:<bsize>:<assoc>,<rep>:<wr>:<alloc>:<wr_alloc>,<mshr>:<N>:<merge>,<mq>}
-gpgpu_cache:dl2_texture_only                    0 # L2 cache used for texture only
-gpgpu_n_mem                           32 # number of memory modules (e.g. memory controllers) in gpu
-gpgpu_n_sub_partition_per_mchannel                    2 # number of memory subpartition in each memory module
-gpgpu_n_mem_per_ctrlr                    1 # number of memory chips per memory controller
-gpgpu_memlatency_stat                   14 # track and display latency statistics 0x2 enables MC, 0x4 enables queue logs
-gpgpu_frfcfs_dram_sched_queue_size                   64 # 0 = unlimited (default); # entries per chip
-gpgpu_dram_return_queue_size                  192 # 0 = unlimited (default); # entries per chip
-gpgpu_dram_buswidth                   16 # default = 4 bytes (8 bytes per cycle at DDR)
-gpgpu_dram_burst_length                    2 # Burst length of each DRAM request (default = 4 data bus cycle)
-dram_data_command_freq_ratio                    2 # Frequency ratio between DRAM data bus and command bus (default = 2 times, i.e. DDR)
-gpgpu_dram_timing_opt nbk=16:CCD=1:RRD=3:RCD=12:RAS=28:RP=12:RC=40: CL=12:WL=2:CDLR=3:WR=10:nbkgrp=4:CCDL=2:RTPL=3 # DRAM timing parameters = {nbk:tCCD:tRRD:tRCD:tRAS:tRP:tRC:CL:WL:tCDLR:tWR:nbkgrp:tCCDL:tRTPL}
-gpgpu_l2_rop_latency                  160 # ROP queue latency (default 85)
-dram_latency                         100 # DRAM latency (default 30)
-dram_dual_bus_interface                    1 # dual_bus_interface (default = 0) 
-dram_bnk_indexing_policy                    0 # dram_bnk_indexing_policy (0 = normal indexing, 1 = Xoring with the higher bits) (Default = 0)
-dram_bnkgrp_indexing_policy                    1 # dram_bnkgrp_indexing_policy (0 = take higher bits, 1 = take lower bits) (Default = 0)
-dram_seperate_write_queue_enable                    0 # Seperate_Write_Queue_Enable
-dram_write_queue_size             32:28:16 # Write_Queue_Size
-dram_elimnate_rw_turnaround                    0 # elimnate_rw_turnaround i.e set tWTR and tRTW = 0
-icnt_flit_size                        40 # icnt_flit_size
-gpgpu_mem_addr_mapping dramid@8;00000000.00000000.00000000.00000000.0000RRRR.RRRRRRRR.RBBBCCCB.CCCSSSSS # mapping memory address to dram model {dramid@<start bit>;<memory address map>}
-gpgpu_mem_addr_test                    0 # run sweep test to check address mapping for aliased address
-gpgpu_mem_address_mask                    1 # 0 = old addressing mask, 1 = new addressing mask, 2 = new add. mask + flipped bank sel and chip sel bits
-gpgpu_memory_partition_indexing                    2 # 0 = no indexing, 1 = bitwise xoring, 2 = IPoly, 3 = custom indexing
-gpuwattch_xml_file         gpuwattch.xml # GPUWattch XML file
-power_simulation_enabled                    0 # Turn on power simulator (1=On, 0=Off)
-power_per_cycle_dump                    0 # Dump detailed power output each cycle
-power_trace_enabled                    0 # produce a file for the power trace (1=On, 0=Off)
-power_trace_zlevel                     6 # Compression level of the power trace output log (0=no comp, 9=highest)
-steady_power_levels_enabled                    0 # produce a file for the steady power levels (1=On, 0=Off)
-steady_state_definition                  8:4 # allowed deviation:number of samples
-gpgpu_max_cycle                        0 # terminates gpu simulation early (0 = no limit)
-gpgpu_max_insn                1000000000 # terminates gpu simulation early (0 = no limit)
-gpgpu_max_cta                          0 # terminates gpu simulation early (0 = no limit)
-gpgpu_max_completed_cta                    0 # terminates gpu simulation early (0 = no limit)
-gpgpu_runtime_stat                   500 # display runtime statistics such as dram utilization {<freq>:<flag>}
-liveness_message_freq                    1 # Minimum number of seconds between simulation liveness messages (0 = always print)
-gpgpu_compute_capability_major                    7 # Major compute capability version number
-gpgpu_compute_capability_minor                    0 # Minor compute capability version number
-gpgpu_flush_l1_cache                    1 # Flush L1 cache at the end of each kernel call
-gpgpu_flush_l2_cache                    0 # Flush L2 cache at the end of each kernel call
-gpgpu_deadlock_detect                    1 # Stop the simulation at deadlock (1=on (default), 0=off)
-gpgpu_ptx_instruction_classification                    0 # if enabled will classify ptx instruction types per kernel (Max 255 kernels now)
-gpgpu_ptx_sim_mode                     0 # Select between Performance (default) or Functional simulation (1)
-gpgpu_clock_domains 1132.0:1132.0:1132.0:850.0 # Clock Domain Frequencies in MhZ {<Core Clock>:<ICNT Clock>:<L2 Clock>:<DRAM Clock>}
-gpgpu_max_concurrent_kernel                    8 # maximum kernels that can run concurrently on GPU
-gpgpu_cflog_interval                    0 # Interval between each snapshot in control flow logger
-visualizer_enabled                     0 # Turn on visualizer output (1=On, 0=Off)
-visualizer_outputfile                 NULL # Specifies the output log file for visualizer
-visualizer_zlevel                      6 # Compression level of the visualizer output log (0=no comp, 9=highest)
-gpgpu_stack_size_limit                 1024 # GPU thread stack size
-gpgpu_heap_size_limit              8388608 # GPU malloc heap size 
-gpgpu_runtime_sync_depth_limit                    2 # GPU device runtime synchronize depth
-gpgpu_runtime_pending_launch_count_limit                 2048 # GPU device runtime pending launch count
-trace_enabled                          0 # Turn on traces
-trace_components                    none # comma seperated list of traces to enable. Complete list found in trace_streams.tup. Default none
-trace_sampling_core                    0 # The core which is printed using CORE_DPRINTF. Default 0
-trace_sampling_memory_partition                   -1 # The memory partition which is printed using MEMPART_DPRINTF. Default -1 (i.e. all)
-enable_ptx_file_line_stats                    1 # Turn on PTX source line statistic profiling. (1 = On)
-ptx_line_stats_filename gpgpu_inst_stats.txt # Output file for PTX source line statistics.
-gpgpu_kernel_launch_latency                 5000 # Kernel launch latency in cycles. Default: 0
-gpgpu_cdp_enabled                      0 # Turn on CDP
-gpgpu_TB_launch_latency                    0 # thread block launch latency in cycles. Default: 0
-trace               ./traces/kernelslist.g # traces kernel filetraces kernel file directory
-trace_opcode_latency_initiation_int                  4,2 # Opcode latencies and initiation for integers in trace driven mode <latency,initiation>
-trace_opcode_latency_initiation_sp                  4,2 # Opcode latencies and initiation for sp in trace driven mode <latency,initiation>
-trace_opcode_latency_initiation_dp                  8,4 # Opcode latencies and initiation for dp in trace driven mode <latency,initiation>
-trace_opcode_latency_initiation_sfu                 20,8 # Opcode latencies and initiation for sfu in trace driven mode <latency,initiation>
-trace_opcode_latency_initiation_tensor                  8,4 # Opcode latencies and initiation for tensor in trace driven mode <latency,initiation>
-trace_opcode_latency_initiation_spec_op_1                  4,4 # specialized unit config <latency,initiation>
-trace_opcode_latency_initiation_spec_op_2                200,4 # specialized unit config <latency,initiation>
-trace_opcode_latency_initiation_spec_op_3                  8,4 # specialized unit config <latency,initiation>
-trace_opcode_latency_initiation_spec_op_4                  4,4 # specialized unit config <latency,initiation>
-trace_opcode_latency_initiation_spec_op_5                  4,4 # specialized unit config <latency,initiation>
-trace_opcode_latency_initiation_spec_op_6                  4,4 # specialized unit config <latency,initiation>
-trace_opcode_latency_initiation_spec_op_7                  4,4 # specialized unit config <latency,initiation>
-trace_opcode_latency_initiation_spec_op_8                  4,4 # specialized unit config <latency,initiation>
DRAM Timing Options:
nbk                                    16 # number of banks
CCD                                     1 # column to column delay
RRD                                     3 # minimal delay between activation of rows in different banks
RCD                                    12 # row to column delay
RAS                                    28 # time needed to activate row
RP                                     12 # time needed to precharge (deactivate) row
RC                                     40 # row cycle time
CDLR                                    3 # switching from write to read (changes tWTR)
WR                                     10 # last data-in to row precharge
CL                                     12 # CAS latency
WL                                      2 # Write latency
nbkgrp                                  4 # number of bank groups
CCDL                                    2 # column to column delay between accesses to different bank groups
RTPL                                    3 # read to precharge delay between accesses to different bank groups
Total number of memory sub partition = 64
addr_dec_mask[CHIP]  = 0000000000001f00 	high:13 low:8
addr_dec_mask[BK]    = 00000000000e2000 	high:20 low:13
addr_dec_mask[ROW]   = 00000001fff00000 	high:33 low:20
addr_dec_mask[COL]   = 000000000001c0ff 	high:17 low:0
addr_dec_mask[BURST] = 000000000000001f 	high:5 low:0
sub_partition_id_mask = 0000000000002000
GPGPU-Sim uArch: clock freqs: 1132000000.000000:1132000000.000000:1132000000.000000:850000000.000000
GPGPU-Sim uArch: clock periods: 0.00000000088339222615:0.00000000088339222615:0.00000000088339222615:0.00000000117647058824
*** Initializing Memory Statistics ***
GPGPU-Sim uArch: performance model initialization complete.
launching memcpy command : MemcpyHtoD,0x00007ff194000000,16283432
launching memcpy command : MemcpyHtoD,0x00007ff191500000,48000
launching memcpy command : MemcpyHtoD,0x00007ff19150bc00,48000
launching memcpy command : MemcpyHtoD,0x00007ff191517800,48000
launching memcpy command : MemcpyHtoD,0x00007ff191523400,48000
launching memcpy command : MemcpyHtoD,0x00007ff19152f000,24000
launching memcpy command : MemcpyHtoD,0x00007ff191534e00,24000
launching memcpy command : MemcpyHtoD,0x00007ff19153ac00,24000
launching memcpy command : MemcpyHtoD,0x00007ff191540a00,24000
Processing kernel ./traces/kernel-1.traceg
-kernel name = findRangeK
-kernel id = 1
-grid dim = (6000,1,1)
-block dim = (256,1,1)
-shmem = 0
-nregs = 32
-binary version = 70
-cuda stream id = 0
-shmem base_addr = 0x00007ff1ca000000
-local mem base_addr = 0x00007ff1c8000000
-nvbit version = 1.5.3
-accelsim tracer version = 3
launching kernel command : ./traces/kernel-1.traceg
GPGPU-Sim uArch: Shader 0 bind to kernel 1 'findRangeK'
GPGPU-Sim uArch: CTA/core = 8, limited by: threads regs
GPGPU-Sim: Reconfigure L1 cache to 128KB
thread block = 0,0,0
GPGPU-Sim uArch: Shader 8 bind to kernel 1 'findRangeK'
thread block = 1,0,0
GPGPU-Sim uArch: Shader 16 bind to kernel 1 'findRangeK'
thread block = 2,0,0
GPGPU-Sim uArch: Shader 24 bind to kernel 1 'findRangeK'
thread block = 3,0,0
GPGPU-Sim uArch: Shader 32 bind to kernel 1 'findRangeK'
thread block = 4,0,0
GPGPU-Sim uArch: Shader 40 bind to kernel 1 'findRangeK'
thread block = 5,0,0
GPGPU-Sim uArch: Shader 48 bind to kernel 1 'findRangeK'
thread block = 6,0,0
GPGPU-Sim uArch: Shader 56 bind to kernel 1 'findRangeK'
thread block = 7,0,0
GPGPU-Sim uArch: Shader 64 bind to kernel 1 'findRangeK'
thread block = 8,0,0
GPGPU-Sim uArch: Shader 72 bind to kernel 1 'findRangeK'
thread block = 9,0,0
GPGPU-Sim uArch: Shader 80 bind to kernel 1 'findRangeK'
thread block = 10,0,0
GPGPU-Sim uArch: Shader 88 bind to kernel 1 'findRangeK'
thread block = 11,0,0
GPGPU-Sim uArch: Shader 96 bind to kernel 1 'findRangeK'
thread block = 12,0,0
GPGPU-Sim uArch: Shader 104 bind to kernel 1 'findRangeK'
thread block = 13,0,0
GPGPU-Sim uArch: Shader 112 bind to kernel 1 'findRangeK'
thread block = 14,0,0
GPGPU-Sim uArch: Shader 120 bind to kernel 1 'findRangeK'
thread block = 15,0,0
GPGPU-Sim uArch: Shader 128 bind to kernel 1 'findRangeK'
thread block = 16,0,0
GPGPU-Sim uArch: Shader 136 bind to kernel 1 'findRangeK'
thread block = 17,0,0
GPGPU-Sim uArch: Shader 144 bind to kernel 1 'findRangeK'
thread block = 18,0,0
GPGPU-Sim uArch: Shader 152 bind to kernel 1 'findRangeK'
thread block = 19,0,0
GPGPU-Sim uArch: Shader 160 bind to kernel 1 'findRangeK'
thread block = 20,0,0
GPGPU-Sim uArch: Shader 168 bind to kernel 1 'findRangeK'
thread block = 21,0,0
GPGPU-Sim uArch: Shader 176 bind to kernel 1 'findRangeK'
thread block = 22,0,0
GPGPU-Sim uArch: Shader 184 bind to kernel 1 'findRangeK'
thread block = 23,0,0
GPGPU-Sim uArch: Shader 192 bind to kernel 1 'findRangeK'
thread block = 24,0,0
GPGPU-Sim uArch: Shader 200 bind to kernel 1 'findRangeK'
thread block = 25,0,0
GPGPU-Sim uArch: Shader 208 bind to kernel 1 'findRangeK'
thread block = 26,0,0
GPGPU-Sim uArch: Shader 216 bind to kernel 1 'findRangeK'
thread block = 27,0,0
GPGPU-Sim uArch: Shader 224 bind to kernel 1 'findRangeK'
thread block = 28,0,0
GPGPU-Sim uArch: Shader 232 bind to kernel 1 'findRangeK'
thread block = 29,0,0
GPGPU-Sim uArch: Shader 240 bind to kernel 1 'findRangeK'
thread block = 30,0,0
GPGPU-Sim uArch: Shader 248 bind to kernel 1 'findRangeK'
thread block = 31,0,0
GPGPU-Sim uArch: Shader 256 bind to kernel 1 'findRangeK'
thread block = 32,0,0
GPGPU-Sim uArch: Shader 264 bind to kernel 1 'findRangeK'
thread block = 33,0,0
GPGPU-Sim uArch: Shader 272 bind to kernel 1 'findRangeK'
thread block = 34,0,0
GPGPU-Sim uArch: Shader 280 bind to kernel 1 'findRangeK'
thread block = 35,0,0
GPGPU-Sim uArch: Shader 288 bind to kernel 1 'findRangeK'
thread block = 36,0,0
GPGPU-Sim uArch: Shader 296 bind to kernel 1 'findRangeK'
thread block = 37,0,0
GPGPU-Sim uArch: Shader 304 bind to kernel 1 'findRangeK'
thread block = 38,0,0
GPGPU-Sim uArch: Shader 312 bind to kernel 1 'findRangeK'
thread block = 39,0,0
GPGPU-Sim uArch: Shader 320 bind to kernel 1 'findRangeK'
thread block = 40,0,0
GPGPU-Sim uArch: Shader 328 bind to kernel 1 'findRangeK'
thread block = 41,0,0
GPGPU-Sim uArch: Shader 336 bind to kernel 1 'findRangeK'
thread block = 42,0,0
GPGPU-Sim uArch: Shader 344 bind to kernel 1 'findRangeK'
thread block = 43,0,0
GPGPU-Sim uArch: Shader 352 bind to kernel 1 'findRangeK'
thread block = 44,0,0
GPGPU-Sim uArch: Shader 360 bind to kernel 1 'findRangeK'
thread block = 45,0,0
GPGPU-Sim uArch: Shader 368 bind to kernel 1 'findRangeK'
thread block = 46,0,0
GPGPU-Sim uArch: Shader 376 bind to kernel 1 'findRangeK'
thread block = 47,0,0
GPGPU-Sim uArch: Shader 384 bind to kernel 1 'findRangeK'
thread block = 48,0,0
GPGPU-Sim uArch: Shader 392 bind to kernel 1 'findRangeK'
thread block = 49,0,0
GPGPU-Sim uArch: Shader 400 bind to kernel 1 'findRangeK'
thread block = 50,0,0
GPGPU-Sim uArch: Shader 408 bind to kernel 1 'findRangeK'
thread block = 51,0,0
GPGPU-Sim uArch: Shader 416 bind to kernel 1 'findRangeK'
thread block = 52,0,0
GPGPU-Sim uArch: Shader 424 bind to kernel 1 'findRangeK'
thread block = 53,0,0
GPGPU-Sim uArch: Shader 432 bind to kernel 1 'findRangeK'
thread block = 54,0,0
GPGPU-Sim uArch: Shader 440 bind to kernel 1 'findRangeK'
thread block = 55,0,0
GPGPU-Sim uArch: Shader 448 bind to kernel 1 'findRangeK'
thread block = 56,0,0
GPGPU-Sim uArch: Shader 456 bind to kernel 1 'findRangeK'
thread block = 57,0,0
GPGPU-Sim uArch: Shader 464 bind to kernel 1 'findRangeK'
thread block = 58,0,0
GPGPU-Sim uArch: Shader 472 bind to kernel 1 'findRangeK'
thread block = 59,0,0
GPGPU-Sim uArch: Shader 480 bind to kernel 1 'findRangeK'
thread block = 60,0,0
GPGPU-Sim uArch: Shader 488 bind to kernel 1 'findRangeK'
thread block = 61,0,0
GPGPU-Sim uArch: Shader 496 bind to kernel 1 'findRangeK'
thread block = 62,0,0
GPGPU-Sim uArch: Shader 504 bind to kernel 1 'findRangeK'
thread block = 63,0,0
GPGPU-Sim uArch: Shader 512 bind to kernel 1 'findRangeK'
thread block = 64,0,0
GPGPU-Sim uArch: Shader 520 bind to kernel 1 'findRangeK'
thread block = 65,0,0
GPGPU-Sim uArch: Shader 528 bind to kernel 1 'findRangeK'
thread block = 66,0,0
GPGPU-Sim uArch: Shader 536 bind to kernel 1 'findRangeK'
thread block = 67,0,0
GPGPU-Sim uArch: Shader 544 bind to kernel 1 'findRangeK'
thread block = 68,0,0
GPGPU-Sim uArch: Shader 552 bind to kernel 1 'findRangeK'
thread block = 69,0,0
GPGPU-Sim uArch: Shader 560 bind to kernel 1 'findRangeK'
thread block = 70,0,0
GPGPU-Sim uArch: Shader 568 bind to kernel 1 'findRangeK'
thread block = 71,0,0
GPGPU-Sim uArch: Shader 576 bind to kernel 1 'findRangeK'
thread block = 72,0,0
GPGPU-Sim uArch: Shader 584 bind to kernel 1 'findRangeK'
thread block = 73,0,0
GPGPU-Sim uArch: Shader 592 bind to kernel 1 'findRangeK'
thread block = 74,0,0
GPGPU-Sim uArch: Shader 600 bind to kernel 1 'findRangeK'
thread block = 75,0,0
GPGPU-Sim uArch: Shader 608 bind to kernel 1 'findRangeK'
thread block = 76,0,0
GPGPU-Sim uArch: Shader 616 bind to kernel 1 'findRangeK'
thread block = 77,0,0
GPGPU-Sim uArch: Shader 624 bind to kernel 1 'findRangeK'
thread block = 78,0,0
GPGPU-Sim uArch: Shader 632 bind to kernel 1 'findRangeK'
thread block = 79,0,0
GPGPU-Sim uArch: Shader 1 bind to kernel 1 'findRangeK'
thread block = 80,0,0
GPGPU-Sim uArch: Shader 9 bind to kernel 1 'findRangeK'
thread block = 81,0,0
GPGPU-Sim uArch: Shader 17 bind to kernel 1 'findRangeK'
thread block = 82,0,0
GPGPU-Sim uArch: Shader 25 bind to kernel 1 'findRangeK'
thread block = 83,0,0
GPGPU-Sim uArch: Shader 33 bind to kernel 1 'findRangeK'
thread block = 84,0,0
GPGPU-Sim uArch: Shader 41 bind to kernel 1 'findRangeK'
thread block = 85,0,0
GPGPU-Sim uArch: Shader 49 bind to kernel 1 'findRangeK'
thread block = 86,0,0
GPGPU-Sim uArch: Shader 57 bind to kernel 1 'findRangeK'
thread block = 87,0,0
GPGPU-Sim uArch: Shader 65 bind to kernel 1 'findRangeK'
thread block = 88,0,0
GPGPU-Sim uArch: Shader 73 bind to kernel 1 'findRangeK'
thread block = 89,0,0
GPGPU-Sim uArch: Shader 81 bind to kernel 1 'findRangeK'
thread block = 90,0,0
GPGPU-Sim uArch: Shader 89 bind to kernel 1 'findRangeK'
thread block = 91,0,0
GPGPU-Sim uArch: Shader 97 bind to kernel 1 'findRangeK'
thread block = 92,0,0
GPGPU-Sim uArch: Shader 105 bind to kernel 1 'findRangeK'
thread block = 93,0,0
GPGPU-Sim uArch: Shader 113 bind to kernel 1 'findRangeK'
thread block = 94,0,0
GPGPU-Sim uArch: Shader 121 bind to kernel 1 'findRangeK'
thread block = 95,0,0
GPGPU-Sim uArch: Shader 129 bind to kernel 1 'findRangeK'
thread block = 96,0,0
GPGPU-Sim uArch: Shader 137 bind to kernel 1 'findRangeK'
thread block = 97,0,0
GPGPU-Sim uArch: Shader 145 bind to kernel 1 'findRangeK'
thread block = 98,0,0
GPGPU-Sim uArch: Shader 153 bind to kernel 1 'findRangeK'
thread block = 99,0,0
GPGPU-Sim uArch: Shader 161 bind to kernel 1 'findRangeK'
thread block = 100,0,0
GPGPU-Sim uArch: Shader 169 bind to kernel 1 'findRangeK'
thread block = 101,0,0
GPGPU-Sim uArch: Shader 177 bind to kernel 1 'findRangeK'
thread block = 102,0,0
GPGPU-Sim uArch: Shader 185 bind to kernel 1 'findRangeK'
thread block = 103,0,0
GPGPU-Sim uArch: Shader 193 bind to kernel 1 'findRangeK'
thread block = 104,0,0
GPGPU-Sim uArch: Shader 201 bind to kernel 1 'findRangeK'
thread block = 105,0,0
GPGPU-Sim uArch: Shader 209 bind to kernel 1 'findRangeK'
thread block = 106,0,0
GPGPU-Sim uArch: Shader 217 bind to kernel 1 'findRangeK'
thread block = 107,0,0
GPGPU-Sim uArch: Shader 225 bind to kernel 1 'findRangeK'
thread block = 108,0,0
GPGPU-Sim uArch: Shader 233 bind to kernel 1 'findRangeK'
thread block = 109,0,0
GPGPU-Sim uArch: Shader 241 bind to kernel 1 'findRangeK'
thread block = 110,0,0
GPGPU-Sim uArch: Shader 249 bind to kernel 1 'findRangeK'
thread block = 111,0,0
GPGPU-Sim uArch: Shader 257 bind to kernel 1 'findRangeK'
thread block = 112,0,0
GPGPU-Sim uArch: Shader 265 bind to kernel 1 'findRangeK'
thread block = 113,0,0
GPGPU-Sim uArch: Shader 273 bind to kernel 1 'findRangeK'
thread block = 114,0,0
GPGPU-Sim uArch: Shader 281 bind to kernel 1 'findRangeK'
thread block = 115,0,0
GPGPU-Sim uArch: Shader 289 bind to kernel 1 'findRangeK'
thread block = 116,0,0
GPGPU-Sim uArch: Shader 297 bind to kernel 1 'findRangeK'
thread block = 117,0,0
GPGPU-Sim uArch: Shader 305 bind to kernel 1 'findRangeK'
thread block = 118,0,0
GPGPU-Sim uArch: Shader 313 bind to kernel 1 'findRangeK'
thread block = 119,0,0
GPGPU-Sim uArch: Shader 321 bind to kernel 1 'findRangeK'
thread block = 120,0,0
GPGPU-Sim uArch: Shader 329 bind to kernel 1 'findRangeK'
thread block = 121,0,0
GPGPU-Sim uArch: Shader 337 bind to kernel 1 'findRangeK'
thread block = 122,0,0
GPGPU-Sim uArch: Shader 345 bind to kernel 1 'findRangeK'
thread block = 123,0,0
GPGPU-Sim uArch: Shader 353 bind to kernel 1 'findRangeK'
thread block = 124,0,0
GPGPU-Sim uArch: Shader 361 bind to kernel 1 'findRangeK'
thread block = 125,0,0
GPGPU-Sim uArch: Shader 369 bind to kernel 1 'findRangeK'
thread block = 126,0,0
GPGPU-Sim uArch: Shader 377 bind to kernel 1 'findRangeK'
thread block = 127,0,0
GPGPU-Sim uArch: Shader 385 bind to kernel 1 'findRangeK'
thread block = 128,0,0
GPGPU-Sim uArch: Shader 393 bind to kernel 1 'findRangeK'
thread block = 129,0,0
GPGPU-Sim uArch: Shader 401 bind to kernel 1 'findRangeK'
thread block = 130,0,0
GPGPU-Sim uArch: Shader 409 bind to kernel 1 'findRangeK'
thread block = 131,0,0
GPGPU-Sim uArch: Shader 417 bind to kernel 1 'findRangeK'
thread block = 132,0,0
GPGPU-Sim uArch: Shader 425 bind to kernel 1 'findRangeK'
thread block = 133,0,0
GPGPU-Sim uArch: Shader 433 bind to kernel 1 'findRangeK'
thread block = 134,0,0
GPGPU-Sim uArch: Shader 441 bind to kernel 1 'findRangeK'
thread block = 135,0,0
GPGPU-Sim uArch: Shader 449 bind to kernel 1 'findRangeK'
thread block = 136,0,0
GPGPU-Sim uArch: Shader 457 bind to kernel 1 'findRangeK'
thread block = 137,0,0
GPGPU-Sim uArch: Shader 465 bind to kernel 1 'findRangeK'
thread block = 138,0,0
GPGPU-Sim uArch: Shader 473 bind to kernel 1 'findRangeK'
thread block = 139,0,0
GPGPU-Sim uArch: Shader 481 bind to kernel 1 'findRangeK'
thread block = 140,0,0
GPGPU-Sim uArch: Shader 489 bind to kernel 1 'findRangeK'
thread block = 141,0,0
GPGPU-Sim uArch: Shader 497 bind to kernel 1 'findRangeK'
thread block = 142,0,0
GPGPU-Sim uArch: Shader 505 bind to kernel 1 'findRangeK'
thread block = 143,0,0
GPGPU-Sim uArch: Shader 513 bind to kernel 1 'findRangeK'
thread block = 144,0,0
GPGPU-Sim uArch: Shader 521 bind to kernel 1 'findRangeK'
thread block = 145,0,0
GPGPU-Sim uArch: Shader 529 bind to kernel 1 'findRangeK'
thread block = 146,0,0
GPGPU-Sim uArch: Shader 537 bind to kernel 1 'findRangeK'
thread block = 147,0,0
GPGPU-Sim uArch: Shader 545 bind to kernel 1 'findRangeK'
thread block = 148,0,0
GPGPU-Sim uArch: Shader 553 bind to kernel 1 'findRangeK'
thread block = 149,0,0
GPGPU-Sim uArch: Shader 561 bind to kernel 1 'findRangeK'
thread block = 150,0,0
GPGPU-Sim uArch: Shader 569 bind to kernel 1 'findRangeK'
thread block = 151,0,0
GPGPU-Sim uArch: Shader 577 bind to kernel 1 'findRangeK'
thread block = 152,0,0
GPGPU-Sim uArch: Shader 585 bind to kernel 1 'findRangeK'
thread block = 153,0,0
GPGPU-Sim uArch: Shader 593 bind to kernel 1 'findRangeK'
thread block = 154,0,0
GPGPU-Sim uArch: Shader 601 bind to kernel 1 'findRangeK'
thread block = 155,0,0
GPGPU-Sim uArch: Shader 609 bind to kernel 1 'findRangeK'
thread block = 156,0,0
GPGPU-Sim uArch: Shader 617 bind to kernel 1 'findRangeK'
thread block = 157,0,0
GPGPU-Sim uArch: Shader 625 bind to kernel 1 'findRangeK'
thread block = 158,0,0
GPGPU-Sim uArch: Shader 633 bind to kernel 1 'findRangeK'
thread block = 159,0,0
GPGPU-Sim uArch: Shader 2 bind to kernel 1 'findRangeK'
thread block = 160,0,0
GPGPU-Sim uArch: Shader 10 bind to kernel 1 'findRangeK'
thread block = 161,0,0
GPGPU-Sim uArch: Shader 18 bind to kernel 1 'findRangeK'
thread block = 162,0,0
GPGPU-Sim uArch: Shader 26 bind to kernel 1 'findRangeK'
thread block = 163,0,0
GPGPU-Sim uArch: Shader 34 bind to kernel 1 'findRangeK'
thread block = 164,0,0
GPGPU-Sim uArch: Shader 42 bind to kernel 1 'findRangeK'
thread block = 165,0,0
GPGPU-Sim uArch: Shader 50 bind to kernel 1 'findRangeK'
thread block = 166,0,0
GPGPU-Sim uArch: Shader 58 bind to kernel 1 'findRangeK'
thread block = 167,0,0
GPGPU-Sim uArch: Shader 66 bind to kernel 1 'findRangeK'
thread block = 168,0,0
GPGPU-Sim uArch: Shader 74 bind to kernel 1 'findRangeK'
thread block = 169,0,0
GPGPU-Sim uArch: Shader 82 bind to kernel 1 'findRangeK'
thread block = 170,0,0
GPGPU-Sim uArch: Shader 90 bind to kernel 1 'findRangeK'
thread block = 171,0,0
GPGPU-Sim uArch: Shader 98 bind to kernel 1 'findRangeK'
thread block = 172,0,0
GPGPU-Sim uArch: Shader 106 bind to kernel 1 'findRangeK'
thread block = 173,0,0
GPGPU-Sim uArch: Shader 114 bind to kernel 1 'findRangeK'
thread block = 174,0,0
GPGPU-Sim uArch: Shader 122 bind to kernel 1 'findRangeK'
thread block = 175,0,0
GPGPU-Sim uArch: Shader 130 bind to kernel 1 'findRangeK'
thread block = 176,0,0
GPGPU-Sim uArch: Shader 138 bind to kernel 1 'findRangeK'
thread block = 177,0,0
GPGPU-Sim uArch: Shader 146 bind to kernel 1 'findRangeK'
thread block = 178,0,0
GPGPU-Sim uArch: Shader 154 bind to kernel 1 'findRangeK'
thread block = 179,0,0
GPGPU-Sim uArch: Shader 162 bind to kernel 1 'findRangeK'
thread block = 180,0,0
GPGPU-Sim uArch: Shader 170 bind to kernel 1 'findRangeK'
thread block = 181,0,0
GPGPU-Sim uArch: Shader 178 bind to kernel 1 'findRangeK'
thread block = 182,0,0
GPGPU-Sim uArch: Shader 186 bind to kernel 1 'findRangeK'
thread block = 183,0,0
GPGPU-Sim uArch: Shader 194 bind to kernel 1 'findRangeK'
thread block = 184,0,0
GPGPU-Sim uArch: Shader 202 bind to kernel 1 'findRangeK'
thread block = 185,0,0
GPGPU-Sim uArch: Shader 210 bind to kernel 1 'findRangeK'
thread block = 186,0,0
GPGPU-Sim uArch: Shader 218 bind to kernel 1 'findRangeK'
thread block = 187,0,0
GPGPU-Sim uArch: Shader 226 bind to kernel 1 'findRangeK'
thread block = 188,0,0
GPGPU-Sim uArch: Shader 234 bind to kernel 1 'findRangeK'
thread block = 189,0,0
GPGPU-Sim uArch: Shader 242 bind to kernel 1 'findRangeK'
thread block = 190,0,0
GPGPU-Sim uArch: Shader 250 bind to kernel 1 'findRangeK'
thread block = 191,0,0
GPGPU-Sim uArch: Shader 258 bind to kernel 1 'findRangeK'
thread block = 192,0,0
GPGPU-Sim uArch: Shader 266 bind to kernel 1 'findRangeK'
thread block = 193,0,0
GPGPU-Sim uArch: Shader 274 bind to kernel 1 'findRangeK'
thread block = 194,0,0
GPGPU-Sim uArch: Shader 282 bind to kernel 1 'findRangeK'
thread block = 195,0,0
GPGPU-Sim uArch: Shader 290 bind to kernel 1 'findRangeK'
thread block = 196,0,0
GPGPU-Sim uArch: Shader 298 bind to kernel 1 'findRangeK'
thread block = 197,0,0
GPGPU-Sim uArch: Shader 306 bind to kernel 1 'findRangeK'
thread block = 198,0,0
GPGPU-Sim uArch: Shader 314 bind to kernel 1 'findRangeK'
thread block = 199,0,0
GPGPU-Sim uArch: Shader 322 bind to kernel 1 'findRangeK'
thread block = 200,0,0
GPGPU-Sim uArch: Shader 330 bind to kernel 1 'findRangeK'
thread block = 201,0,0
GPGPU-Sim uArch: Shader 338 bind to kernel 1 'findRangeK'
thread block = 202,0,0
GPGPU-Sim uArch: Shader 346 bind to kernel 1 'findRangeK'
thread block = 203,0,0
GPGPU-Sim uArch: Shader 354 bind to kernel 1 'findRangeK'
thread block = 204,0,0
GPGPU-Sim uArch: Shader 362 bind to kernel 1 'findRangeK'
thread block = 205,0,0
GPGPU-Sim uArch: Shader 370 bind to kernel 1 'findRangeK'
thread block = 206,0,0
GPGPU-Sim uArch: Shader 378 bind to kernel 1 'findRangeK'
thread block = 207,0,0
GPGPU-Sim uArch: Shader 386 bind to kernel 1 'findRangeK'
thread block = 208,0,0
GPGPU-Sim uArch: Shader 394 bind to kernel 1 'findRangeK'
thread block = 209,0,0
GPGPU-Sim uArch: Shader 402 bind to kernel 1 'findRangeK'
thread block = 210,0,0
GPGPU-Sim uArch: Shader 410 bind to kernel 1 'findRangeK'
thread block = 211,0,0
GPGPU-Sim uArch: Shader 418 bind to kernel 1 'findRangeK'
thread block = 212,0,0
GPGPU-Sim uArch: Shader 426 bind to kernel 1 'findRangeK'
thread block = 213,0,0
GPGPU-Sim uArch: Shader 434 bind to kernel 1 'findRangeK'
thread block = 214,0,0
GPGPU-Sim uArch: Shader 442 bind to kernel 1 'findRangeK'
thread block = 215,0,0
GPGPU-Sim uArch: Shader 450 bind to kernel 1 'findRangeK'
thread block = 216,0,0
GPGPU-Sim uArch: Shader 458 bind to kernel 1 'findRangeK'
thread block = 217,0,0
GPGPU-Sim uArch: Shader 466 bind to kernel 1 'findRangeK'
thread block = 218,0,0
GPGPU-Sim uArch: Shader 474 bind to kernel 1 'findRangeK'
thread block = 219,0,0
GPGPU-Sim uArch: Shader 482 bind to kernel 1 'findRangeK'
thread block = 220,0,0
GPGPU-Sim uArch: Shader 490 bind to kernel 1 'findRangeK'
thread block = 221,0,0
GPGPU-Sim uArch: Shader 498 bind to kernel 1 'findRangeK'
thread block = 222,0,0
GPGPU-Sim uArch: Shader 506 bind to kernel 1 'findRangeK'
thread block = 223,0,0
GPGPU-Sim uArch: Shader 514 bind to kernel 1 'findRangeK'
thread block = 224,0,0
GPGPU-Sim uArch: Shader 522 bind to kernel 1 'findRangeK'
thread block = 225,0,0
GPGPU-Sim uArch: Shader 530 bind to kernel 1 'findRangeK'
thread block = 226,0,0
GPGPU-Sim uArch: Shader 538 bind to kernel 1 'findRangeK'
thread block = 227,0,0
GPGPU-Sim uArch: Shader 546 bind to kernel 1 'findRangeK'
thread block = 228,0,0
GPGPU-Sim uArch: Shader 554 bind to kernel 1 'findRangeK'
thread block = 229,0,0
GPGPU-Sim uArch: Shader 562 bind to kernel 1 'findRangeK'
thread block = 230,0,0
GPGPU-Sim uArch: Shader 570 bind to kernel 1 'findRangeK'
thread block = 231,0,0
GPGPU-Sim uArch: Shader 578 bind to kernel 1 'findRangeK'
thread block = 232,0,0
GPGPU-Sim uArch: Shader 586 bind to kernel 1 'findRangeK'
thread block = 233,0,0
GPGPU-Sim uArch: Shader 594 bind to kernel 1 'findRangeK'
thread block = 234,0,0
GPGPU-Sim uArch: Shader 602 bind to kernel 1 'findRangeK'
thread block = 235,0,0
GPGPU-Sim uArch: Shader 610 bind to kernel 1 'findRangeK'
thread block = 236,0,0
GPGPU-Sim uArch: Shader 618 bind to kernel 1 'findRangeK'
thread block = 237,0,0
GPGPU-Sim uArch: Shader 626 bind to kernel 1 'findRangeK'
thread block = 238,0,0
GPGPU-Sim uArch: Shader 634 bind to kernel 1 'findRangeK'
thread block = 239,0,0
GPGPU-Sim uArch: Shader 3 bind to kernel 1 'findRangeK'
thread block = 240,0,0
GPGPU-Sim uArch: Shader 11 bind to kernel 1 'findRangeK'
thread block = 241,0,0
GPGPU-Sim uArch: Shader 19 bind to kernel 1 'findRangeK'
thread block = 242,0,0
GPGPU-Sim uArch: Shader 27 bind to kernel 1 'findRangeK'
thread block = 243,0,0
GPGPU-Sim uArch: Shader 35 bind to kernel 1 'findRangeK'
thread block = 244,0,0
GPGPU-Sim uArch: Shader 43 bind to kernel 1 'findRangeK'
thread block = 245,0,0
GPGPU-Sim uArch: Shader 51 bind to kernel 1 'findRangeK'
thread block = 246,0,0
GPGPU-Sim uArch: Shader 59 bind to kernel 1 'findRangeK'
thread block = 247,0,0
GPGPU-Sim uArch: Shader 67 bind to kernel 1 'findRangeK'
thread block = 248,0,0
GPGPU-Sim uArch: Shader 75 bind to kernel 1 'findRangeK'
thread block = 249,0,0
GPGPU-Sim uArch: Shader 83 bind to kernel 1 'findRangeK'
thread block = 250,0,0
GPGPU-Sim uArch: Shader 91 bind to kernel 1 'findRangeK'
thread block = 251,0,0
GPGPU-Sim uArch: Shader 99 bind to kernel 1 'findRangeK'
thread block = 252,0,0
GPGPU-Sim uArch: Shader 107 bind to kernel 1 'findRangeK'
thread block = 253,0,0
GPGPU-Sim uArch: Shader 115 bind to kernel 1 'findRangeK'
thread block = 254,0,0
GPGPU-Sim uArch: Shader 123 bind to kernel 1 'findRangeK'
thread block = 255,0,0
GPGPU-Sim uArch: Shader 131 bind to kernel 1 'findRangeK'
thread block = 256,0,0
GPGPU-Sim uArch: Shader 139 bind to kernel 1 'findRangeK'
thread block = 257,0,0
GPGPU-Sim uArch: Shader 147 bind to kernel 1 'findRangeK'
thread block = 258,0,0
GPGPU-Sim uArch: Shader 155 bind to kernel 1 'findRangeK'
thread block = 259,0,0
GPGPU-Sim uArch: Shader 163 bind to kernel 1 'findRangeK'
thread block = 260,0,0
GPGPU-Sim uArch: Shader 171 bind to kernel 1 'findRangeK'
thread block = 261,0,0
GPGPU-Sim uArch: Shader 179 bind to kernel 1 'findRangeK'
thread block = 262,0,0
GPGPU-Sim uArch: Shader 187 bind to kernel 1 'findRangeK'
thread block = 263,0,0
GPGPU-Sim uArch: Shader 195 bind to kernel 1 'findRangeK'
thread block = 264,0,0
GPGPU-Sim uArch: Shader 203 bind to kernel 1 'findRangeK'
thread block = 265,0,0
GPGPU-Sim uArch: Shader 211 bind to kernel 1 'findRangeK'
thread block = 266,0,0
GPGPU-Sim uArch: Shader 219 bind to kernel 1 'findRangeK'
thread block = 267,0,0
GPGPU-Sim uArch: Shader 227 bind to kernel 1 'findRangeK'
thread block = 268,0,0
GPGPU-Sim uArch: Shader 235 bind to kernel 1 'findRangeK'
thread block = 269,0,0
GPGPU-Sim uArch: Shader 243 bind to kernel 1 'findRangeK'
thread block = 270,0,0
GPGPU-Sim uArch: Shader 251 bind to kernel 1 'findRangeK'
thread block = 271,0,0
GPGPU-Sim uArch: Shader 259 bind to kernel 1 'findRangeK'
thread block = 272,0,0
GPGPU-Sim uArch: Shader 267 bind to kernel 1 'findRangeK'
thread block = 273,0,0
GPGPU-Sim uArch: Shader 275 bind to kernel 1 'findRangeK'
thread block = 274,0,0
GPGPU-Sim uArch: Shader 283 bind to kernel 1 'findRangeK'
thread block = 275,0,0
GPGPU-Sim uArch: Shader 291 bind to kernel 1 'findRangeK'
thread block = 276,0,0
GPGPU-Sim uArch: Shader 299 bind to kernel 1 'findRangeK'
thread block = 277,0,0
GPGPU-Sim uArch: Shader 307 bind to kernel 1 'findRangeK'
thread block = 278,0,0
GPGPU-Sim uArch: Shader 315 bind to kernel 1 'findRangeK'
thread block = 279,0,0
GPGPU-Sim uArch: Shader 323 bind to kernel 1 'findRangeK'
thread block = 280,0,0
GPGPU-Sim uArch: Shader 331 bind to kernel 1 'findRangeK'
thread block = 281,0,0
GPGPU-Sim uArch: Shader 339 bind to kernel 1 'findRangeK'
thread block = 282,0,0
GPGPU-Sim uArch: Shader 347 bind to kernel 1 'findRangeK'
thread block = 283,0,0
GPGPU-Sim uArch: Shader 355 bind to kernel 1 'findRangeK'
thread block = 284,0,0
GPGPU-Sim uArch: Shader 363 bind to kernel 1 'findRangeK'
thread block = 285,0,0
GPGPU-Sim uArch: Shader 371 bind to kernel 1 'findRangeK'
thread block = 286,0,0
GPGPU-Sim uArch: Shader 379 bind to kernel 1 'findRangeK'
thread block = 287,0,0
GPGPU-Sim uArch: Shader 387 bind to kernel 1 'findRangeK'
thread block = 288,0,0
GPGPU-Sim uArch: Shader 395 bind to kernel 1 'findRangeK'
thread block = 289,0,0
GPGPU-Sim uArch: Shader 403 bind to kernel 1 'findRangeK'
thread block = 290,0,0
GPGPU-Sim uArch: Shader 411 bind to kernel 1 'findRangeK'
thread block = 291,0,0
GPGPU-Sim uArch: Shader 419 bind to kernel 1 'findRangeK'
thread block = 292,0,0
GPGPU-Sim uArch: Shader 427 bind to kernel 1 'findRangeK'
thread block = 293,0,0
GPGPU-Sim uArch: Shader 435 bind to kernel 1 'findRangeK'
thread block = 294,0,0
GPGPU-Sim uArch: Shader 443 bind to kernel 1 'findRangeK'
thread block = 295,0,0
GPGPU-Sim uArch: Shader 451 bind to kernel 1 'findRangeK'
thread block = 296,0,0
GPGPU-Sim uArch: Shader 459 bind to kernel 1 'findRangeK'
thread block = 297,0,0
GPGPU-Sim uArch: Shader 467 bind to kernel 1 'findRangeK'
thread block = 298,0,0
GPGPU-Sim uArch: Shader 475 bind to kernel 1 'findRangeK'
thread block = 299,0,0
GPGPU-Sim uArch: Shader 483 bind to kernel 1 'findRangeK'
thread block = 300,0,0
GPGPU-Sim uArch: Shader 491 bind to kernel 1 'findRangeK'
thread block = 301,0,0
GPGPU-Sim uArch: Shader 499 bind to kernel 1 'findRangeK'
thread block = 302,0,0
GPGPU-Sim uArch: Shader 507 bind to kernel 1 'findRangeK'
thread block = 303,0,0
GPGPU-Sim uArch: Shader 515 bind to kernel 1 'findRangeK'
thread block = 304,0,0
GPGPU-Sim uArch: Shader 523 bind to kernel 1 'findRangeK'
thread block = 305,0,0
GPGPU-Sim uArch: Shader 531 bind to kernel 1 'findRangeK'
thread block = 306,0,0
GPGPU-Sim uArch: Shader 539 bind to kernel 1 'findRangeK'
thread block = 307,0,0
GPGPU-Sim uArch: Shader 547 bind to kernel 1 'findRangeK'
thread block = 308,0,0
GPGPU-Sim uArch: Shader 555 bind to kernel 1 'findRangeK'
thread block = 309,0,0
GPGPU-Sim uArch: Shader 563 bind to kernel 1 'findRangeK'
thread block = 310,0,0
GPGPU-Sim uArch: Shader 571 bind to kernel 1 'findRangeK'
thread block = 311,0,0
GPGPU-Sim uArch: Shader 579 bind to kernel 1 'findRangeK'
thread block = 312,0,0
GPGPU-Sim uArch: Shader 587 bind to kernel 1 'findRangeK'
thread block = 313,0,0
GPGPU-Sim uArch: Shader 595 bind to kernel 1 'findRangeK'
thread block = 314,0,0
GPGPU-Sim uArch: Shader 603 bind to kernel 1 'findRangeK'
thread block = 315,0,0
GPGPU-Sim uArch: Shader 611 bind to kernel 1 'findRangeK'
thread block = 316,0,0
GPGPU-Sim uArch: Shader 619 bind to kernel 1 'findRangeK'
thread block = 317,0,0
GPGPU-Sim uArch: Shader 627 bind to kernel 1 'findRangeK'
thread block = 318,0,0
GPGPU-Sim uArch: Shader 635 bind to kernel 1 'findRangeK'
thread block = 319,0,0
GPGPU-Sim uArch: Shader 4 bind to kernel 1 'findRangeK'
thread block = 320,0,0
GPGPU-Sim uArch: Shader 12 bind to kernel 1 'findRangeK'
thread block = 321,0,0
GPGPU-Sim uArch: Shader 20 bind to kernel 1 'findRangeK'
thread block = 322,0,0
GPGPU-Sim uArch: Shader 28 bind to kernel 1 'findRangeK'
thread block = 323,0,0
GPGPU-Sim uArch: Shader 36 bind to kernel 1 'findRangeK'
thread block = 324,0,0
GPGPU-Sim uArch: Shader 44 bind to kernel 1 'findRangeK'
thread block = 325,0,0
GPGPU-Sim uArch: Shader 52 bind to kernel 1 'findRangeK'
thread block = 326,0,0
GPGPU-Sim uArch: Shader 60 bind to kernel 1 'findRangeK'
thread block = 327,0,0
GPGPU-Sim uArch: Shader 68 bind to kernel 1 'findRangeK'
thread block = 328,0,0
GPGPU-Sim uArch: Shader 76 bind to kernel 1 'findRangeK'
thread block = 329,0,0
GPGPU-Sim uArch: Shader 84 bind to kernel 1 'findRangeK'
thread block = 330,0,0
GPGPU-Sim uArch: Shader 92 bind to kernel 1 'findRangeK'
thread block = 331,0,0
GPGPU-Sim uArch: Shader 100 bind to kernel 1 'findRangeK'
thread block = 332,0,0
GPGPU-Sim uArch: Shader 108 bind to kernel 1 'findRangeK'
thread block = 333,0,0
GPGPU-Sim uArch: Shader 116 bind to kernel 1 'findRangeK'
thread block = 334,0,0
GPGPU-Sim uArch: Shader 124 bind to kernel 1 'findRangeK'
thread block = 335,0,0
GPGPU-Sim uArch: Shader 132 bind to kernel 1 'findRangeK'
thread block = 336,0,0
GPGPU-Sim uArch: Shader 140 bind to kernel 1 'findRangeK'
thread block = 337,0,0
GPGPU-Sim uArch: Shader 148 bind to kernel 1 'findRangeK'
thread block = 338,0,0
GPGPU-Sim uArch: Shader 156 bind to kernel 1 'findRangeK'
thread block = 339,0,0
GPGPU-Sim uArch: Shader 164 bind to kernel 1 'findRangeK'
thread block = 340,0,0
GPGPU-Sim uArch: Shader 172 bind to kernel 1 'findRangeK'
thread block = 341,0,0
GPGPU-Sim uArch: Shader 180 bind to kernel 1 'findRangeK'
thread block = 342,0,0
GPGPU-Sim uArch: Shader 188 bind to kernel 1 'findRangeK'
thread block = 343,0,0
GPGPU-Sim uArch: Shader 196 bind to kernel 1 'findRangeK'
thread block = 344,0,0
GPGPU-Sim uArch: Shader 204 bind to kernel 1 'findRangeK'
thread block = 345,0,0
GPGPU-Sim uArch: Shader 212 bind to kernel 1 'findRangeK'
thread block = 346,0,0
GPGPU-Sim uArch: Shader 220 bind to kernel 1 'findRangeK'
thread block = 347,0,0
GPGPU-Sim uArch: Shader 228 bind to kernel 1 'findRangeK'
thread block = 348,0,0
GPGPU-Sim uArch: Shader 236 bind to kernel 1 'findRangeK'
thread block = 349,0,0
GPGPU-Sim uArch: Shader 244 bind to kernel 1 'findRangeK'
thread block = 350,0,0
GPGPU-Sim uArch: Shader 252 bind to kernel 1 'findRangeK'
thread block = 351,0,0
GPGPU-Sim uArch: Shader 260 bind to kernel 1 'findRangeK'
thread block = 352,0,0
GPGPU-Sim uArch: Shader 268 bind to kernel 1 'findRangeK'
thread block = 353,0,0
GPGPU-Sim uArch: Shader 276 bind to kernel 1 'findRangeK'
thread block = 354,0,0
GPGPU-Sim uArch: Shader 284 bind to kernel 1 'findRangeK'
thread block = 355,0,0
GPGPU-Sim uArch: Shader 292 bind to kernel 1 'findRangeK'
thread block = 356,0,0
GPGPU-Sim uArch: Shader 300 bind to kernel 1 'findRangeK'
thread block = 357,0,0
GPGPU-Sim uArch: Shader 308 bind to kernel 1 'findRangeK'
thread block = 358,0,0
GPGPU-Sim uArch: Shader 316 bind to kernel 1 'findRangeK'
thread block = 359,0,0
GPGPU-Sim uArch: Shader 324 bind to kernel 1 'findRangeK'
thread block = 360,0,0
GPGPU-Sim uArch: Shader 332 bind to kernel 1 'findRangeK'
thread block = 361,0,0
GPGPU-Sim uArch: Shader 340 bind to kernel 1 'findRangeK'
thread block = 362,0,0
GPGPU-Sim uArch: Shader 348 bind to kernel 1 'findRangeK'
thread block = 363,0,0
GPGPU-Sim uArch: Shader 356 bind to kernel 1 'findRangeK'
thread block = 364,0,0
GPGPU-Sim uArch: Shader 364 bind to kernel 1 'findRangeK'
thread block = 365,0,0
GPGPU-Sim uArch: Shader 372 bind to kernel 1 'findRangeK'
thread block = 366,0,0
GPGPU-Sim uArch: Shader 380 bind to kernel 1 'findRangeK'
thread block = 367,0,0
GPGPU-Sim uArch: Shader 388 bind to kernel 1 'findRangeK'
thread block = 368,0,0
GPGPU-Sim uArch: Shader 396 bind to kernel 1 'findRangeK'
thread block = 369,0,0
GPGPU-Sim uArch: Shader 404 bind to kernel 1 'findRangeK'
thread block = 370,0,0
GPGPU-Sim uArch: Shader 412 bind to kernel 1 'findRangeK'
thread block = 371,0,0
GPGPU-Sim uArch: Shader 420 bind to kernel 1 'findRangeK'
thread block = 372,0,0
GPGPU-Sim uArch: Shader 428 bind to kernel 1 'findRangeK'
thread block = 373,0,0
GPGPU-Sim uArch: Shader 436 bind to kernel 1 'findRangeK'
thread block = 374,0,0
GPGPU-Sim uArch: Shader 444 bind to kernel 1 'findRangeK'
thread block = 375,0,0
GPGPU-Sim uArch: Shader 452 bind to kernel 1 'findRangeK'
thread block = 376,0,0
GPGPU-Sim uArch: Shader 460 bind to kernel 1 'findRangeK'
thread block = 377,0,0
GPGPU-Sim uArch: Shader 468 bind to kernel 1 'findRangeK'
thread block = 378,0,0
GPGPU-Sim uArch: Shader 476 bind to kernel 1 'findRangeK'
thread block = 379,0,0
GPGPU-Sim uArch: Shader 484 bind to kernel 1 'findRangeK'
thread block = 380,0,0
GPGPU-Sim uArch: Shader 492 bind to kernel 1 'findRangeK'
thread block = 381,0,0
GPGPU-Sim uArch: Shader 500 bind to kernel 1 'findRangeK'
thread block = 382,0,0
GPGPU-Sim uArch: Shader 508 bind to kernel 1 'findRangeK'
thread block = 383,0,0
GPGPU-Sim uArch: Shader 516 bind to kernel 1 'findRangeK'
thread block = 384,0,0
GPGPU-Sim uArch: Shader 524 bind to kernel 1 'findRangeK'
thread block = 385,0,0
GPGPU-Sim uArch: Shader 532 bind to kernel 1 'findRangeK'
thread block = 386,0,0
GPGPU-Sim uArch: Shader 540 bind to kernel 1 'findRangeK'
thread block = 387,0,0
GPGPU-Sim uArch: Shader 548 bind to kernel 1 'findRangeK'
thread block = 388,0,0
GPGPU-Sim uArch: Shader 556 bind to kernel 1 'findRangeK'
thread block = 389,0,0
GPGPU-Sim uArch: Shader 564 bind to kernel 1 'findRangeK'
thread block = 390,0,0
GPGPU-Sim uArch: Shader 572 bind to kernel 1 'findRangeK'
thread block = 391,0,0
GPGPU-Sim uArch: Shader 580 bind to kernel 1 'findRangeK'
thread block = 392,0,0
GPGPU-Sim uArch: Shader 588 bind to kernel 1 'findRangeK'
thread block = 393,0,0
GPGPU-Sim uArch: Shader 596 bind to kernel 1 'findRangeK'
thread block = 394,0,0
GPGPU-Sim uArch: Shader 604 bind to kernel 1 'findRangeK'
thread block = 395,0,0
GPGPU-Sim uArch: Shader 612 bind to kernel 1 'findRangeK'
thread block = 396,0,0
GPGPU-Sim uArch: Shader 620 bind to kernel 1 'findRangeK'
thread block = 397,0,0
GPGPU-Sim uArch: Shader 628 bind to kernel 1 'findRangeK'
thread block = 398,0,0
GPGPU-Sim uArch: Shader 636 bind to kernel 1 'findRangeK'
thread block = 399,0,0
GPGPU-Sim uArch: Shader 5 bind to kernel 1 'findRangeK'
thread block = 400,0,0
GPGPU-Sim uArch: Shader 13 bind to kernel 1 'findRangeK'
thread block = 401,0,0
GPGPU-Sim uArch: Shader 21 bind to kernel 1 'findRangeK'
thread block = 402,0,0
GPGPU-Sim uArch: Shader 29 bind to kernel 1 'findRangeK'
thread block = 403,0,0
GPGPU-Sim uArch: Shader 37 bind to kernel 1 'findRangeK'
thread block = 404,0,0
GPGPU-Sim uArch: Shader 45 bind to kernel 1 'findRangeK'
thread block = 405,0,0
GPGPU-Sim uArch: Shader 53 bind to kernel 1 'findRangeK'
thread block = 406,0,0
GPGPU-Sim uArch: Shader 61 bind to kernel 1 'findRangeK'
thread block = 407,0,0
GPGPU-Sim uArch: Shader 69 bind to kernel 1 'findRangeK'
thread block = 408,0,0
GPGPU-Sim uArch: Shader 77 bind to kernel 1 'findRangeK'
thread block = 409,0,0
GPGPU-Sim uArch: Shader 85 bind to kernel 1 'findRangeK'
thread block = 410,0,0
GPGPU-Sim uArch: Shader 93 bind to kernel 1 'findRangeK'
thread block = 411,0,0
GPGPU-Sim uArch: Shader 101 bind to kernel 1 'findRangeK'
thread block = 412,0,0
GPGPU-Sim uArch: Shader 109 bind to kernel 1 'findRangeK'
thread block = 413,0,0
GPGPU-Sim uArch: Shader 117 bind to kernel 1 'findRangeK'
thread block = 414,0,0
GPGPU-Sim uArch: Shader 125 bind to kernel 1 'findRangeK'
thread block = 415,0,0
GPGPU-Sim uArch: Shader 133 bind to kernel 1 'findRangeK'
thread block = 416,0,0
GPGPU-Sim uArch: Shader 141 bind to kernel 1 'findRangeK'
thread block = 417,0,0
GPGPU-Sim uArch: Shader 149 bind to kernel 1 'findRangeK'
thread block = 418,0,0
GPGPU-Sim uArch: Shader 157 bind to kernel 1 'findRangeK'
thread block = 419,0,0
GPGPU-Sim uArch: Shader 165 bind to kernel 1 'findRangeK'
thread block = 420,0,0
GPGPU-Sim uArch: Shader 173 bind to kernel 1 'findRangeK'
thread block = 421,0,0
GPGPU-Sim uArch: Shader 181 bind to kernel 1 'findRangeK'
thread block = 422,0,0
GPGPU-Sim uArch: Shader 189 bind to kernel 1 'findRangeK'
thread block = 423,0,0
GPGPU-Sim uArch: Shader 197 bind to kernel 1 'findRangeK'
thread block = 424,0,0
GPGPU-Sim uArch: Shader 205 bind to kernel 1 'findRangeK'
thread block = 425,0,0
GPGPU-Sim uArch: Shader 213 bind to kernel 1 'findRangeK'
thread block = 426,0,0
GPGPU-Sim uArch: Shader 221 bind to kernel 1 'findRangeK'
thread block = 427,0,0
GPGPU-Sim uArch: Shader 229 bind to kernel 1 'findRangeK'
thread block = 428,0,0
GPGPU-Sim uArch: Shader 237 bind to kernel 1 'findRangeK'
thread block = 429,0,0
GPGPU-Sim uArch: Shader 245 bind to kernel 1 'findRangeK'
thread block = 430,0,0
GPGPU-Sim uArch: Shader 253 bind to kernel 1 'findRangeK'
thread block = 431,0,0
GPGPU-Sim uArch: Shader 261 bind to kernel 1 'findRangeK'
thread block = 432,0,0
GPGPU-Sim uArch: Shader 269 bind to kernel 1 'findRangeK'
thread block = 433,0,0
GPGPU-Sim uArch: Shader 277 bind to kernel 1 'findRangeK'
thread block = 434,0,0
GPGPU-Sim uArch: Shader 285 bind to kernel 1 'findRangeK'
thread block = 435,0,0
GPGPU-Sim uArch: Shader 293 bind to kernel 1 'findRangeK'
thread block = 436,0,0
GPGPU-Sim uArch: Shader 301 bind to kernel 1 'findRangeK'
thread block = 437,0,0
GPGPU-Sim uArch: Shader 309 bind to kernel 1 'findRangeK'
thread block = 438,0,0
GPGPU-Sim uArch: Shader 317 bind to kernel 1 'findRangeK'
thread block = 439,0,0
GPGPU-Sim uArch: Shader 325 bind to kernel 1 'findRangeK'
thread block = 440,0,0
GPGPU-Sim uArch: Shader 333 bind to kernel 1 'findRangeK'
thread block = 441,0,0
GPGPU-Sim uArch: Shader 341 bind to kernel 1 'findRangeK'
thread block = 442,0,0
GPGPU-Sim uArch: Shader 349 bind to kernel 1 'findRangeK'
thread block = 443,0,0
GPGPU-Sim uArch: Shader 357 bind to kernel 1 'findRangeK'
thread block = 444,0,0
GPGPU-Sim uArch: Shader 365 bind to kernel 1 'findRangeK'
thread block = 445,0,0
GPGPU-Sim uArch: Shader 373 bind to kernel 1 'findRangeK'
thread block = 446,0,0
GPGPU-Sim uArch: Shader 381 bind to kernel 1 'findRangeK'
thread block = 447,0,0
GPGPU-Sim uArch: Shader 389 bind to kernel 1 'findRangeK'
thread block = 448,0,0
GPGPU-Sim uArch: Shader 397 bind to kernel 1 'findRangeK'
thread block = 449,0,0
GPGPU-Sim uArch: Shader 405 bind to kernel 1 'findRangeK'
thread block = 450,0,0
GPGPU-Sim uArch: Shader 413 bind to kernel 1 'findRangeK'
thread block = 451,0,0
GPGPU-Sim uArch: Shader 421 bind to kernel 1 'findRangeK'
thread block = 452,0,0
GPGPU-Sim uArch: Shader 429 bind to kernel 1 'findRangeK'
thread block = 453,0,0
GPGPU-Sim uArch: Shader 437 bind to kernel 1 'findRangeK'
thread block = 454,0,0
GPGPU-Sim uArch: Shader 445 bind to kernel 1 'findRangeK'
thread block = 455,0,0
GPGPU-Sim uArch: Shader 453 bind to kernel 1 'findRangeK'
thread block = 456,0,0
GPGPU-Sim uArch: Shader 461 bind to kernel 1 'findRangeK'
thread block = 457,0,0
GPGPU-Sim uArch: Shader 469 bind to kernel 1 'findRangeK'
thread block = 458,0,0
GPGPU-Sim uArch: Shader 477 bind to kernel 1 'findRangeK'
thread block = 459,0,0
GPGPU-Sim uArch: Shader 485 bind to kernel 1 'findRangeK'
thread block = 460,0,0
GPGPU-Sim uArch: Shader 493 bind to kernel 1 'findRangeK'
thread block = 461,0,0
GPGPU-Sim uArch: Shader 501 bind to kernel 1 'findRangeK'
thread block = 462,0,0
GPGPU-Sim uArch: Shader 509 bind to kernel 1 'findRangeK'
thread block = 463,0,0
GPGPU-Sim uArch: Shader 517 bind to kernel 1 'findRangeK'
thread block = 464,0,0
GPGPU-Sim uArch: Shader 525 bind to kernel 1 'findRangeK'
thread block = 465,0,0
GPGPU-Sim uArch: Shader 533 bind to kernel 1 'findRangeK'
thread block = 466,0,0
GPGPU-Sim uArch: Shader 541 bind to kernel 1 'findRangeK'
thread block = 467,0,0
GPGPU-Sim uArch: Shader 549 bind to kernel 1 'findRangeK'
thread block = 468,0,0
GPGPU-Sim uArch: Shader 557 bind to kernel 1 'findRangeK'
thread block = 469,0,0
GPGPU-Sim uArch: Shader 565 bind to kernel 1 'findRangeK'
thread block = 470,0,0
GPGPU-Sim uArch: Shader 573 bind to kernel 1 'findRangeK'
thread block = 471,0,0
GPGPU-Sim uArch: Shader 581 bind to kernel 1 'findRangeK'
thread block = 472,0,0
GPGPU-Sim uArch: Shader 589 bind to kernel 1 'findRangeK'
thread block = 473,0,0
GPGPU-Sim uArch: Shader 597 bind to kernel 1 'findRangeK'
thread block = 474,0,0
GPGPU-Sim uArch: Shader 605 bind to kernel 1 'findRangeK'
thread block = 475,0,0
GPGPU-Sim uArch: Shader 613 bind to kernel 1 'findRangeK'
thread block = 476,0,0
GPGPU-Sim uArch: Shader 621 bind to kernel 1 'findRangeK'
thread block = 477,0,0
GPGPU-Sim uArch: Shader 629 bind to kernel 1 'findRangeK'
thread block = 478,0,0
GPGPU-Sim uArch: Shader 637 bind to kernel 1 'findRangeK'
thread block = 479,0,0
GPGPU-Sim uArch: Shader 6 bind to kernel 1 'findRangeK'
thread block = 480,0,0
GPGPU-Sim uArch: Shader 14 bind to kernel 1 'findRangeK'
thread block = 481,0,0
GPGPU-Sim uArch: Shader 22 bind to kernel 1 'findRangeK'
thread block = 482,0,0
GPGPU-Sim uArch: Shader 30 bind to kernel 1 'findRangeK'
thread block = 483,0,0
GPGPU-Sim uArch: Shader 38 bind to kernel 1 'findRangeK'
thread block = 484,0,0
GPGPU-Sim uArch: Shader 46 bind to kernel 1 'findRangeK'
thread block = 485,0,0
GPGPU-Sim uArch: Shader 54 bind to kernel 1 'findRangeK'
thread block = 486,0,0
GPGPU-Sim uArch: Shader 62 bind to kernel 1 'findRangeK'
thread block = 487,0,0
GPGPU-Sim uArch: Shader 70 bind to kernel 1 'findRangeK'
thread block = 488,0,0
GPGPU-Sim uArch: Shader 78 bind to kernel 1 'findRangeK'
thread block = 489,0,0
GPGPU-Sim uArch: Shader 86 bind to kernel 1 'findRangeK'
thread block = 490,0,0
GPGPU-Sim uArch: Shader 94 bind to kernel 1 'findRangeK'
thread block = 491,0,0
GPGPU-Sim uArch: Shader 102 bind to kernel 1 'findRangeK'
thread block = 492,0,0
GPGPU-Sim uArch: Shader 110 bind to kernel 1 'findRangeK'
thread block = 493,0,0
GPGPU-Sim uArch: Shader 118 bind to kernel 1 'findRangeK'
thread block = 494,0,0
GPGPU-Sim uArch: Shader 126 bind to kernel 1 'findRangeK'
thread block = 495,0,0
GPGPU-Sim uArch: Shader 134 bind to kernel 1 'findRangeK'
thread block = 496,0,0
GPGPU-Sim uArch: Shader 142 bind to kernel 1 'findRangeK'
thread block = 497,0,0
GPGPU-Sim uArch: Shader 150 bind to kernel 1 'findRangeK'
thread block = 498,0,0
GPGPU-Sim uArch: Shader 158 bind to kernel 1 'findRangeK'
thread block = 499,0,0
GPGPU-Sim uArch: Shader 166 bind to kernel 1 'findRangeK'
thread block = 500,0,0
GPGPU-Sim uArch: Shader 174 bind to kernel 1 'findRangeK'
thread block = 501,0,0
GPGPU-Sim uArch: Shader 182 bind to kernel 1 'findRangeK'
thread block = 502,0,0
GPGPU-Sim uArch: Shader 190 bind to kernel 1 'findRangeK'
thread block = 503,0,0
GPGPU-Sim uArch: Shader 198 bind to kernel 1 'findRangeK'
thread block = 504,0,0
GPGPU-Sim uArch: Shader 206 bind to kernel 1 'findRangeK'
thread block = 505,0,0
GPGPU-Sim uArch: Shader 214 bind to kernel 1 'findRangeK'
thread block = 506,0,0
GPGPU-Sim uArch: Shader 222 bind to kernel 1 'findRangeK'
thread block = 507,0,0
GPGPU-Sim uArch: Shader 230 bind to kernel 1 'findRangeK'
thread block = 508,0,0
GPGPU-Sim uArch: Shader 238 bind to kernel 1 'findRangeK'
thread block = 509,0,0
GPGPU-Sim uArch: Shader 246 bind to kernel 1 'findRangeK'
thread block = 510,0,0
GPGPU-Sim uArch: Shader 254 bind to kernel 1 'findRangeK'
thread block = 511,0,0
GPGPU-Sim uArch: Shader 262 bind to kernel 1 'findRangeK'
thread block = 512,0,0
GPGPU-Sim uArch: Shader 270 bind to kernel 1 'findRangeK'
thread block = 513,0,0
GPGPU-Sim uArch: Shader 278 bind to kernel 1 'findRangeK'
thread block = 514,0,0
GPGPU-Sim uArch: Shader 286 bind to kernel 1 'findRangeK'
thread block = 515,0,0
GPGPU-Sim uArch: Shader 294 bind to kernel 1 'findRangeK'
thread block = 516,0,0
GPGPU-Sim uArch: Shader 302 bind to kernel 1 'findRangeK'
thread block = 517,0,0
GPGPU-Sim uArch: Shader 310 bind to kernel 1 'findRangeK'
thread block = 518,0,0
GPGPU-Sim uArch: Shader 318 bind to kernel 1 'findRangeK'
thread block = 519,0,0
GPGPU-Sim uArch: Shader 326 bind to kernel 1 'findRangeK'
thread block = 520,0,0
GPGPU-Sim uArch: Shader 334 bind to kernel 1 'findRangeK'
thread block = 521,0,0
GPGPU-Sim uArch: Shader 342 bind to kernel 1 'findRangeK'
thread block = 522,0,0
GPGPU-Sim uArch: Shader 350 bind to kernel 1 'findRangeK'
thread block = 523,0,0
GPGPU-Sim uArch: Shader 358 bind to kernel 1 'findRangeK'
thread block = 524,0,0
GPGPU-Sim uArch: Shader 366 bind to kernel 1 'findRangeK'
thread block = 525,0,0
GPGPU-Sim uArch: Shader 374 bind to kernel 1 'findRangeK'
thread block = 526,0,0
GPGPU-Sim uArch: Shader 382 bind to kernel 1 'findRangeK'
thread block = 527,0,0
GPGPU-Sim uArch: Shader 390 bind to kernel 1 'findRangeK'
thread block = 528,0,0
GPGPU-Sim uArch: Shader 398 bind to kernel 1 'findRangeK'
thread block = 529,0,0
GPGPU-Sim uArch: Shader 406 bind to kernel 1 'findRangeK'
thread block = 530,0,0
GPGPU-Sim uArch: Shader 414 bind to kernel 1 'findRangeK'
thread block = 531,0,0
GPGPU-Sim uArch: Shader 422 bind to kernel 1 'findRangeK'
thread block = 532,0,0
GPGPU-Sim uArch: Shader 430 bind to kernel 1 'findRangeK'
thread block = 533,0,0
GPGPU-Sim uArch: Shader 438 bind to kernel 1 'findRangeK'
thread block = 534,0,0
GPGPU-Sim uArch: Shader 446 bind to kernel 1 'findRangeK'
thread block = 535,0,0
GPGPU-Sim uArch: Shader 454 bind to kernel 1 'findRangeK'
thread block = 536,0,0
GPGPU-Sim uArch: Shader 462 bind to kernel 1 'findRangeK'
thread block = 537,0,0
GPGPU-Sim uArch: Shader 470 bind to kernel 1 'findRangeK'
thread block = 538,0,0
GPGPU-Sim uArch: Shader 478 bind to kernel 1 'findRangeK'
thread block = 539,0,0
GPGPU-Sim uArch: Shader 486 bind to kernel 1 'findRangeK'
thread block = 540,0,0
GPGPU-Sim uArch: Shader 494 bind to kernel 1 'findRangeK'
thread block = 541,0,0
GPGPU-Sim uArch: Shader 502 bind to kernel 1 'findRangeK'
thread block = 542,0,0
GPGPU-Sim uArch: Shader 510 bind to kernel 1 'findRangeK'
thread block = 543,0,0
GPGPU-Sim uArch: Shader 518 bind to kernel 1 'findRangeK'
thread block = 544,0,0
GPGPU-Sim uArch: Shader 526 bind to kernel 1 'findRangeK'
thread block = 545,0,0
GPGPU-Sim uArch: Shader 534 bind to kernel 1 'findRangeK'
thread block = 546,0,0
GPGPU-Sim uArch: Shader 542 bind to kernel 1 'findRangeK'
thread block = 547,0,0
GPGPU-Sim uArch: Shader 550 bind to kernel 1 'findRangeK'
thread block = 548,0,0
GPGPU-Sim uArch: Shader 558 bind to kernel 1 'findRangeK'
thread block = 549,0,0
GPGPU-Sim uArch: Shader 566 bind to kernel 1 'findRangeK'
thread block = 550,0,0
GPGPU-Sim uArch: Shader 574 bind to kernel 1 'findRangeK'
thread block = 551,0,0
GPGPU-Sim uArch: Shader 582 bind to kernel 1 'findRangeK'
thread block = 552,0,0
GPGPU-Sim uArch: Shader 590 bind to kernel 1 'findRangeK'
thread block = 553,0,0
GPGPU-Sim uArch: Shader 598 bind to kernel 1 'findRangeK'
thread block = 554,0,0
GPGPU-Sim uArch: Shader 606 bind to kernel 1 'findRangeK'
thread block = 555,0,0
GPGPU-Sim uArch: Shader 614 bind to kernel 1 'findRangeK'
thread block = 556,0,0
GPGPU-Sim uArch: Shader 622 bind to kernel 1 'findRangeK'
thread block = 557,0,0
GPGPU-Sim uArch: Shader 630 bind to kernel 1 'findRangeK'
thread block = 558,0,0
GPGPU-Sim uArch: Shader 638 bind to kernel 1 'findRangeK'
thread block = 559,0,0
GPGPU-Sim uArch: Shader 7 bind to kernel 1 'findRangeK'
thread block = 560,0,0
GPGPU-Sim uArch: Shader 15 bind to kernel 1 'findRangeK'
thread block = 561,0,0
GPGPU-Sim uArch: Shader 23 bind to kernel 1 'findRangeK'
thread block = 562,0,0
GPGPU-Sim uArch: Shader 31 bind to kernel 1 'findRangeK'
thread block = 563,0,0
GPGPU-Sim uArch: Shader 39 bind to kernel 1 'findRangeK'
thread block = 564,0,0
GPGPU-Sim uArch: Shader 47 bind to kernel 1 'findRangeK'
thread block = 565,0,0
GPGPU-Sim uArch: Shader 55 bind to kernel 1 'findRangeK'
thread block = 566,0,0
GPGPU-Sim uArch: Shader 63 bind to kernel 1 'findRangeK'
thread block = 567,0,0
GPGPU-Sim uArch: Shader 71 bind to kernel 1 'findRangeK'
thread block = 568,0,0
GPGPU-Sim uArch: Shader 79 bind to kernel 1 'findRangeK'
thread block = 569,0,0
GPGPU-Sim uArch: Shader 87 bind to kernel 1 'findRangeK'
thread block = 570,0,0
GPGPU-Sim uArch: Shader 95 bind to kernel 1 'findRangeK'
thread block = 571,0,0
GPGPU-Sim uArch: Shader 103 bind to kernel 1 'findRangeK'
thread block = 572,0,0
GPGPU-Sim uArch: Shader 111 bind to kernel 1 'findRangeK'
thread block = 573,0,0
GPGPU-Sim uArch: Shader 119 bind to kernel 1 'findRangeK'
thread block = 574,0,0
GPGPU-Sim uArch: Shader 127 bind to kernel 1 'findRangeK'
thread block = 575,0,0
GPGPU-Sim uArch: Shader 135 bind to kernel 1 'findRangeK'
thread block = 576,0,0
GPGPU-Sim uArch: Shader 143 bind to kernel 1 'findRangeK'
thread block = 577,0,0
GPGPU-Sim uArch: Shader 151 bind to kernel 1 'findRangeK'
thread block = 578,0,0
GPGPU-Sim uArch: Shader 159 bind to kernel 1 'findRangeK'
thread block = 579,0,0
GPGPU-Sim uArch: Shader 167 bind to kernel 1 'findRangeK'
thread block = 580,0,0
GPGPU-Sim uArch: Shader 175 bind to kernel 1 'findRangeK'
thread block = 581,0,0
GPGPU-Sim uArch: Shader 183 bind to kernel 1 'findRangeK'
thread block = 582,0,0
GPGPU-Sim uArch: Shader 191 bind to kernel 1 'findRangeK'
thread block = 583,0,0
GPGPU-Sim uArch: Shader 199 bind to kernel 1 'findRangeK'
thread block = 584,0,0
GPGPU-Sim uArch: Shader 207 bind to kernel 1 'findRangeK'
thread block = 585,0,0
GPGPU-Sim uArch: Shader 215 bind to kernel 1 'findRangeK'
thread block = 586,0,0
GPGPU-Sim uArch: Shader 223 bind to kernel 1 'findRangeK'
thread block = 587,0,0
GPGPU-Sim uArch: Shader 231 bind to kernel 1 'findRangeK'
thread block = 588,0,0
GPGPU-Sim uArch: Shader 239 bind to kernel 1 'findRangeK'
thread block = 589,0,0
GPGPU-Sim uArch: Shader 247 bind to kernel 1 'findRangeK'
thread block = 590,0,0
GPGPU-Sim uArch: Shader 255 bind to kernel 1 'findRangeK'
thread block = 591,0,0
GPGPU-Sim uArch: Shader 263 bind to kernel 1 'findRangeK'
thread block = 592,0,0
GPGPU-Sim uArch: Shader 271 bind to kernel 1 'findRangeK'
thread block = 593,0,0
GPGPU-Sim uArch: Shader 279 bind to kernel 1 'findRangeK'
thread block = 594,0,0
GPGPU-Sim uArch: Shader 287 bind to kernel 1 'findRangeK'
thread block = 595,0,0
GPGPU-Sim uArch: Shader 295 bind to kernel 1 'findRangeK'
thread block = 596,0,0
GPGPU-Sim uArch: Shader 303 bind to kernel 1 'findRangeK'
thread block = 597,0,0
GPGPU-Sim uArch: Shader 311 bind to kernel 1 'findRangeK'
thread block = 598,0,0
GPGPU-Sim uArch: Shader 319 bind to kernel 1 'findRangeK'
thread block = 599,0,0
GPGPU-Sim uArch: Shader 327 bind to kernel 1 'findRangeK'
thread block = 600,0,0
GPGPU-Sim uArch: Shader 335 bind to kernel 1 'findRangeK'
thread block = 601,0,0
GPGPU-Sim uArch: Shader 343 bind to kernel 1 'findRangeK'
thread block = 602,0,0
GPGPU-Sim uArch: Shader 351 bind to kernel 1 'findRangeK'
thread block = 603,0,0
GPGPU-Sim uArch: Shader 359 bind to kernel 1 'findRangeK'
thread block = 604,0,0
GPGPU-Sim uArch: Shader 367 bind to kernel 1 'findRangeK'
thread block = 605,0,0
GPGPU-Sim uArch: Shader 375 bind to kernel 1 'findRangeK'
thread block = 606,0,0
GPGPU-Sim uArch: Shader 383 bind to kernel 1 'findRangeK'
thread block = 607,0,0
GPGPU-Sim uArch: Shader 391 bind to kernel 1 'findRangeK'
thread block = 608,0,0
GPGPU-Sim uArch: Shader 399 bind to kernel 1 'findRangeK'
thread block = 609,0,0
GPGPU-Sim uArch: Shader 407 bind to kernel 1 'findRangeK'
thread block = 610,0,0
GPGPU-Sim uArch: Shader 415 bind to kernel 1 'findRangeK'
thread block = 611,0,0
GPGPU-Sim uArch: Shader 423 bind to kernel 1 'findRangeK'
thread block = 612,0,0
GPGPU-Sim uArch: Shader 431 bind to kernel 1 'findRangeK'
thread block = 613,0,0
GPGPU-Sim uArch: Shader 439 bind to kernel 1 'findRangeK'
thread block = 614,0,0
GPGPU-Sim uArch: Shader 447 bind to kernel 1 'findRangeK'
thread block = 615,0,0
GPGPU-Sim uArch: Shader 455 bind to kernel 1 'findRangeK'
thread block = 616,0,0
GPGPU-Sim uArch: Shader 463 bind to kernel 1 'findRangeK'
thread block = 617,0,0
GPGPU-Sim uArch: Shader 471 bind to kernel 1 'findRangeK'
thread block = 618,0,0
GPGPU-Sim uArch: Shader 479 bind to kernel 1 'findRangeK'
thread block = 619,0,0
GPGPU-Sim uArch: Shader 487 bind to kernel 1 'findRangeK'
thread block = 620,0,0
GPGPU-Sim uArch: Shader 495 bind to kernel 1 'findRangeK'
thread block = 621,0,0
GPGPU-Sim uArch: Shader 503 bind to kernel 1 'findRangeK'
thread block = 622,0,0
GPGPU-Sim uArch: Shader 511 bind to kernel 1 'findRangeK'
thread block = 623,0,0
GPGPU-Sim uArch: Shader 519 bind to kernel 1 'findRangeK'
thread block = 624,0,0
GPGPU-Sim uArch: Shader 527 bind to kernel 1 'findRangeK'
thread block = 625,0,0
GPGPU-Sim uArch: Shader 535 bind to kernel 1 'findRangeK'
thread block = 626,0,0
GPGPU-Sim uArch: Shader 543 bind to kernel 1 'findRangeK'
thread block = 627,0,0
GPGPU-Sim uArch: Shader 551 bind to kernel 1 'findRangeK'
thread block = 628,0,0
GPGPU-Sim uArch: Shader 559 bind to kernel 1 'findRangeK'
thread block = 629,0,0
GPGPU-Sim uArch: Shader 567 bind to kernel 1 'findRangeK'
thread block = 630,0,0
GPGPU-Sim uArch: Shader 575 bind to kernel 1 'findRangeK'
thread block = 631,0,0
GPGPU-Sim uArch: Shader 583 bind to kernel 1 'findRangeK'
thread block = 632,0,0
GPGPU-Sim uArch: Shader 591 bind to kernel 1 'findRangeK'
thread block = 633,0,0
GPGPU-Sim uArch: Shader 599 bind to kernel 1 'findRangeK'
thread block = 634,0,0
GPGPU-Sim uArch: Shader 607 bind to kernel 1 'findRangeK'
thread block = 635,0,0
GPGPU-Sim uArch: Shader 615 bind to kernel 1 'findRangeK'
thread block = 636,0,0
GPGPU-Sim uArch: Shader 623 bind to kernel 1 'findRangeK'
thread block = 637,0,0
GPGPU-Sim uArch: Shader 631 bind to kernel 1 'findRangeK'
thread block = 638,0,0
GPGPU-Sim uArch: Shader 639 bind to kernel 1 'findRangeK'
thread block = 639,0,0
thread block = 640,0,0
thread block = 641,0,0
thread block = 642,0,0
thread block = 643,0,0
[...]

------------------------------------------------------------------------

Row_Buffer_Locality = 0.768036
Row_Buffer_Locality_read = 0.769750
Row_Buffer_Locality_write = 0.260000
Bank_Level_Parallism = 4.709531
Bank_Level_Parallism_Col = 2.984917
Bank_Level_Parallism_Ready = 1.642881
write_to_read_ratio_blp_rw_average = 0.062904
GrpLevelPara = 2.108619 

BW Util details:
bwutil = 0.246053 
total_CMD = 61056 
util_bw = 15023 
Wasted_Col = 13045 
Wasted_Row = 4142 
Idle = 28846 

BW Util Bottlenecks: 
RCDc_limit = 18865 
RCDWRc_limit = 134 
WTRc_limit = 741 
RTWc_limit = 2406 
CCDLc_limit = 6823 
rwq = 0 
CCDLc_limit_alone = 6542 
WTRc_limit_alone = 675 
RTWc_limit_alone = 2191 

Commands details: 
total_CMD = 61056 
n_nop = 42726 
Read = 14823 
Write = 0 
L2_Alloc = 0 
L2_WB = 200 
n_act = 3450 
n_pre = 3434 
n_ref = 0 
n_req = 14873 
total_req = 15023 

Dual Bus Interface Util: 
issued_total_row = 6884 
issued_total_col = 15023 
Row_Bus_Util =  0.112749 
CoL_Bus_Util = 0.246053 
Either_Row_CoL_Bus_Util = 0.300216 
Issued_on_Two_Bus_Simul_Util = 0.058586 
issued_two_Eff = 0.195145 
queue_avg = 10.263021 


dram_util_bins: 0 0 0 0 0 0 0 0 0 0
dram_eff_bins: 0 0 0 0 0 0 0 0 0 0
mrqq: max=64 avg=10.263
Memory Partition 29: 
Cache L2_bank_058:
MSHR contents

Cache L2_bank_059:
MSHR contents

In Dram Latency Queue (total = 0): 
DRAM[29]: 16 bks, busW=16 BL=2 CL=12, tRRD=3 tCCD=1, tRCD=12 tRAS=28 tRP=12 tRC=40
n_cmd=61056 n_nop=43120 n_act=3352 n_pre=3336 n_ref_event=0 n_req=14524 n_rd=14475 n_rd_L2_A=0 n_write=0 n_wr_bk=196 bw_util=0.2403
n_activity=36810 dram_eff=0.3986
bk0: 1119a 49074i bk1: 1137a 48531i bk2: 997a 51607i bk3: 1027a 52670i bk4: 850a 53663i bk5: 893a 54031i bk6: 898a 53524i bk7: 851a 53413i bk8: 865a 53587i bk9: 844a 53457i bk10: 854a 52736i bk11: 879a 53275i bk12: 863a 53535i bk13: 795a 54185i bk14: 871a 53872i bk15: 732a 54438i 

------------------------------------------------------------------------

Row_Buffer_Locality = 0.769210
Row_Buffer_Locality_read = 0.770155
Row_Buffer_Locality_write = 0.489796
Bank_Level_Parallism = 4.473617
Bank_Level_Parallism_Col = 2.876821
Bank_Level_Parallism_Ready = 1.608139
write_to_read_ratio_blp_rw_average = 0.054338
GrpLevelPara = 2.064144 

BW Util details:
bwutil = 0.240288 
total_CMD = 61056 
util_bw = 14671 
Wasted_Col = 13370 
Wasted_Row = 4555 
Idle = 28460 

BW Util Bottlenecks: 
RCDc_limit = 18837 
RCDWRc_limit = 117 
WTRc_limit = 567 
RTWc_limit = 2294 
CCDLc_limit = 6689 
rwq = 0 
CCDLc_limit_alone = 6391 
WTRc_limit_alone = 507 
RTWc_limit_alone = 2056 

Commands details: 
total_CMD = 61056 
n_nop = 43120 
Read = 14475 
Write = 0 
L2_Alloc = 0 
L2_WB = 196 
n_act = 3352 
n_pre = 3336 
n_ref = 0 
n_req = 14524 
total_req = 14671 

Dual Bus Interface Util: 
issued_total_row = 6688 
issued_total_col = 14671 
Row_Bus_Util =  0.109539 
CoL_Bus_Util = 0.240288 
Either_Row_CoL_Bus_Util = 0.293763 
Issued_on_Two_Bus_Simul_Util = 0.056063 
issued_two_Eff = 0.190845 
queue_avg = 10.187909 


dram_util_bins: 0 0 0 0 0 0 0 0 0 0
dram_eff_bins: 0 0 0 0 0 0 0 0 0 0
mrqq: max=64 avg=10.1879
Memory Partition 30: 
Cache L2_bank_060:
MSHR contents

Cache L2_bank_061:
MSHR contents

In Dram Latency Queue (total = 0): 
DRAM[30]: 16 bks, busW=16 BL=2 CL=12, tRRD=3 tCCD=1, tRCD=12 tRAS=28 tRP=12 tRC=40
n_cmd=61056 n_nop=42845 n_act=3393 n_pre=3377 n_ref_event=0 n_req=14789 n_rd=14736 n_rd_L2_A=0 n_write=0 n_wr_bk=212 bw_util=0.2448
n_activity=35993 dram_eff=0.4153
bk0: 1118a 50211i bk1: 1065a 49834i bk2: 1051a 49938i bk3: 1085a 50650i bk4: 872a 52906i bk5: 962a 53434i bk6: 892a 52784i bk7: 873a 52617i bk8: 827a 52955i bk9: 843a 53659i bk10: 911a 53129i bk11: 865a 53384i bk12: 879a 53126i bk13: 793a 53777i bk14: 849a 54060i bk15: 851a 53693i 

------------------------------------------------------------------------

Row_Buffer_Locality = 0.770573
Row_Buffer_Locality_read = 0.772055
Row_Buffer_Locality_write = 0.358491
Bank_Level_Parallism = 4.777350
Bank_Level_Parallism_Col = 3.033571
Bank_Level_Parallism_Ready = 1.668785
write_to_read_ratio_blp_rw_average = 0.065135
GrpLevelPara = 2.151744 

BW Util details:
bwutil = 0.244824 
total_CMD = 61056 
util_bw = 14948 
Wasted_Col = 12840 
Wasted_Row = 3930 
Idle = 29338 

BW Util Bottlenecks: 
RCDc_limit = 18599 
RCDWRc_limit = 141 
WTRc_limit = 890 
RTWc_limit = 2866 
CCDLc_limit = 6640 
rwq = 0 
CCDLc_limit_alone = 6242 
WTRc_limit_alone = 812 
RTWc_limit_alone = 2546 

Commands details: 
total_CMD = 61056 
n_nop = 42845 
Read = 14736 
Write = 0 
L2_Alloc = 0 
L2_WB = 212 
n_act = 3393 
n_pre = 3377 
n_ref = 0 
n_req = 14789 
total_req = 14948 

Dual Bus Interface Util: 
issued_total_row = 6770 
issued_total_col = 14948 
Row_Bus_Util =  0.110882 
CoL_Bus_Util = 0.244824 
Either_Row_CoL_Bus_Util = 0.298267 
Issued_on_Two_Bus_Simul_Util = 0.057439 
issued_two_Eff = 0.192576 
queue_avg = 11.448031 


dram_util_bins: 0 0 0 0 0 0 0 0 0 0
dram_eff_bins: 0 0 0 0 0 0 0 0 0 0
mrqq: max=64 avg=11.448
Memory Partition 31: 
Cache L2_bank_062:
MSHR contents

Cache L2_bank_063:
MSHR contents

In Dram Latency Queue (total = 0): 
DRAM[31]: 16 bks, busW=16 BL=2 CL=12, tRRD=3 tCCD=1, tRCD=12 tRAS=28 tRP=12 tRC=40
n_cmd=61056 n_nop=42820 n_act=3475 n_pre=3459 n_ref_event=0 n_req=14691 n_rd=14633 n_rd_L2_A=0 n_write=0 n_wr_bk=232 bw_util=0.2435
n_activity=36454 dram_eff=0.4078
bk0: 1153a 48894i bk1: 1089a 49642i bk2: 1018a 50804i bk3: 1100a 51204i bk4: 851a 53226i bk5: 962a 52750i bk6: 819a 53076i bk7: 840a 53094i bk8: 846a 53289i bk9: 856a 53771i bk10: 913a 53195i bk11: 818a 53511i bk12: 874a 53162i bk13: 826a 52909i bk14: 827a 54068i bk15: 841a 53110i 

------------------------------------------------------------------------

Row_Buffer_Locality = 0.763461
Row_Buffer_Locality_read = 0.764983
Row_Buffer_Locality_write = 0.379310
Bank_Level_Parallism = 4.724609
Bank_Level_Parallism_Col = 2.966130
Bank_Level_Parallism_Ready = 1.596771
write_to_read_ratio_blp_rw_average = 0.062983
GrpLevelPara = 2.122897 

BW Util details:
bwutil = 0.243465 
total_CMD = 61056 
util_bw = 14865 
Wasted_Col = 13146 
Wasted_Row = 4136 
Idle = 28909 

BW Util Bottlenecks: 
RCDc_limit = 19031 
RCDWRc_limit = 164 
WTRc_limit = 708 
RTWc_limit = 2649 
CCDLc_limit = 6473 
rwq = 0 
CCDLc_limit_alone = 6173 
WTRc_limit_alone = 638 
RTWc_limit_alone = 2419 

Commands details: 
total_CMD = 61056 
n_nop = 42820 
Read = 14633 
Write = 0 
L2_Alloc = 0 
L2_WB = 232 
n_act = 3475 
n_pre = 3459 
n_ref = 0 
n_req = 14691 
total_req = 14865 

Dual Bus Interface Util: 
issued_total_row = 6934 
issued_total_col = 14865 
Row_Bus_Util =  0.113568 
CoL_Bus_Util = 0.243465 
Either_Row_CoL_Bus_Util = 0.298677 
Issued_on_Two_Bus_Simul_Util = 0.058356 
issued_two_Eff = 0.195383 
queue_avg = 10.505602 


dram_util_bins: 0 0 0 0 0 0 0 0 0 0
dram_eff_bins: 0 0 0 0 0 0 0 0 0 0
mrqq: max=64 avg=10.5056

========= L2 cache stats =========
L2_cache_bank[0]: Access = 24186, Miss = 7821, Miss_rate = 0.323, Pending_hits = 567, Reservation_fails = 1866
L2_cache_bank[1]: Access = 28706, Miss = 8401, Miss_rate = 0.293, Pending_hits = 615, Reservation_fails = 3442
L2_cache_bank[2]: Access = 24790, Miss = 7910, Miss_rate = 0.319, Pending_hits = 578, Reservation_fails = 2147
L2_cache_bank[3]: Access = 29251, Miss = 8408, Miss_rate = 0.287, Pending_hits = 609, Reservation_fails = 2910
L2_cache_bank[4]: Access = 25210, Miss = 7799, Miss_rate = 0.309, Pending_hits = 548, Reservation_fails = 2269
L2_cache_bank[5]: Access = 28381, Miss = 8142, Miss_rate = 0.287, Pending_hits = 529, Reservation_fails = 2188
L2_cache_bank[6]: Access = 25238, Miss = 7984, Miss_rate = 0.316, Pending_hits = 551, Reservation_fails = 1775
L2_cache_bank[7]: Access = 29162, Miss = 8149, Miss_rate = 0.279, Pending_hits = 612, Reservation_fails = 3618
L2_cache_bank[8]: Access = 25837, Miss = 7938, Miss_rate = 0.307, Pending_hits = 542, Reservation_fails = 2018
L2_cache_bank[9]: Access = 25973, Miss = 7989, Miss_rate = 0.308, Pending_hits = 550, Reservation_fails = 2404
L2_cache_bank[10]: Access = 25085, Miss = 7822, Miss_rate = 0.312, Pending_hits = 534, Reservation_fails = 1918
L2_cache_bank[11]: Access = 28786, Miss = 7862, Miss_rate = 0.273, Pending_hits = 559, Reservation_fails = 1799
L2_cache_bank[12]: Access = 24775, Miss = 7879, Miss_rate = 0.318, Pending_hits = 499, Reservation_fails = 1917
L2_cache_bank[13]: Access = 25868, Miss = 8327, Miss_rate = 0.322, Pending_hits = 561, Reservation_fails = 2300
L2_cache_bank[14]: Access = 24041, Miss = 7728, Miss_rate = 0.321, Pending_hits = 539, Reservation_fails = 1789
L2_cache_bank[15]: Access = 25200, Miss = 8165, Miss_rate = 0.324, Pending_hits = 523, Reservation_fails = 1850
L2_cache_bank[16]: Access = 24120, Miss = 7874, Miss_rate = 0.326, Pending_hits = 563, Reservation_fails = 2275
L2_cache_bank[17]: Access = 23572, Miss = 8010, Miss_rate = 0.340, Pending_hits = 529, Reservation_fails = 1896
L2_cache_bank[18]: Access = 25231, Miss = 8121, Miss_rate = 0.322, Pending_hits = 598, Reservation_fails = 2086
L2_cache_bank[19]: Access = 24050, Miss = 7998, Miss_rate = 0.333, Pending_hits = 495, Reservation_fails = 1082
L2_cache_bank[20]: Access = 29352, Miss = 7875, Miss_rate = 0.268, Pending_hits = 580, Reservation_fails = 2426
L2_cache_bank[21]: Access = 23651, Miss = 7868, Miss_rate = 0.333, Pending_hits = 505, Reservation_fails = 2395
L2_cache_bank[22]: Access = 25308, Miss = 7938, Miss_rate = 0.314, Pending_hits = 608, Reservation_fails = 2140
L2_cache_bank[23]: Access = 24670, Miss = 8057, Miss_rate = 0.327, Pending_hits = 534, Reservation_fails = 1208
L2_cache_bank[24]: Access = 29625, Miss = 7839, Miss_rate = 0.265, Pending_hits = 587, Reservation_fails = 2449
L2_cache_bank[25]: Access = 26191, Miss = 8141, Miss_rate = 0.311, Pending_hits = 546, Reservation_fails = 841
L2_cache_bank[26]: Access = 28607, Miss = 7609, Miss_rate = 0.266, Pending_hits = 569, Reservation_fails = 2202
L2_cache_bank[27]: Access = 26256, Miss = 8061, Miss_rate = 0.307, Pending_hits = 531, Reservation_fails = 934
L2_cache_bank[28]: Access = 29015, Miss = 7742, Miss_rate = 0.267, Pending_hits = 572, Reservation_fails = 2292
L2_cache_bank[29]: Access = 26359, Miss = 8171, Miss_rate = 0.310, Pending_hits = 542, Reservation_fails = 1421
L2_cache_bank[30]: Access = 28158, Miss = 7628, Miss_rate = 0.271, Pending_hits = 548, Reservation_fails = 2601
L2_cache_bank[31]: Access = 25556, Miss = 8067, Miss_rate = 0.316, Pending_hits = 560, Reservation_fails = 791
L2_cache_bank[32]: Access = 23839, Miss = 7809, Miss_rate = 0.328, Pending_hits = 546, Reservation_fails = 2260
L2_cache_bank[33]: Access = 23452, Miss = 7548, Miss_rate = 0.322, Pending_hits = 429, Reservation_fails = 1265
L2_cache_bank[34]: Access = 25036, Miss = 8101, Miss_rate = 0.324, Pending_hits = 571, Reservation_fails = 2231
L2_cache_bank[35]: Access = 23978, Miss = 7872, Miss_rate = 0.328, Pending_hits = 477, Reservation_fails = 1233
L2_cache_bank[36]: Access = 23773, Miss = 7848, Miss_rate = 0.330, Pending_hits = 556, Reservation_fails = 2131
L2_cache_bank[37]: Access = 23958, Miss = 7777, Miss_rate = 0.325, Pending_hits = 520, Reservation_fails = 843
L2_cache_bank[38]: Access = 24940, Miss = 7966, Miss_rate = 0.319, Pending_hits = 601, Reservation_fails = 2707
L2_cache_bank[39]: Access = 25156, Miss = 7961, Miss_rate = 0.316, Pending_hits = 486, Reservation_fails = 1278
L2_cache_bank[40]: Access = 24676, Miss = 7994, Miss_rate = 0.324, Pending_hits = 563, Reservation_fails = 2167
L2_cache_bank[41]: Access = 25512, Miss = 7931, Miss_rate = 0.311, Pending_hits = 526, Reservation_fails = 1040
L2_cache_bank[42]: Access = 23584, Miss = 7709, Miss_rate = 0.327, Pending_hits = 562, Reservation_fails = 2279
L2_cache_bank[43]: Access = 25218, Miss = 7693, Miss_rate = 0.305, Pending_hits = 470, Reservation_fails = 970
L2_cache_bank[44]: Access = 24772, Miss = 7840, Miss_rate = 0.316, Pending_hits = 595, Reservation_fails = 2420
L2_cache_bank[45]: Access = 24871, Miss = 7669, Miss_rate = 0.308, Pending_hits = 492, Reservation_fails = 1070
L2_cache_bank[46]: Access = 23463, Miss = 7870, Miss_rate = 0.335, Pending_hits = 557, Reservation_fails = 2327
L2_cache_bank[47]: Access = 23992, Miss = 7575, Miss_rate = 0.316, Pending_hits = 478, Reservation_fails = 1099
L2_cache_bank[48]: Access = 23280, Miss = 7560, Miss_rate = 0.325, Pending_hits = 578, Reservation_fails = 2497
L2_cache_bank[49]: Access = 23323, Miss = 7897, Miss_rate = 0.339, Pending_hits = 565, Reservation_fails = 1692
L2_cache_bank[50]: Access = 23923, Miss = 7598, Miss_rate = 0.318, Pending_hits = 589, Reservation_fails = 2468
L2_cache_bank[51]: Access = 24324, Miss = 8039, Miss_rate = 0.330, Pending_hits = 554, Reservation_fails = 1349
L2_cache_bank[52]: Access = 24210, Miss = 7752, Miss_rate = 0.320, Pending_hits = 558, Reservation_fails = 2381
L2_cache_bank[53]: Access = 23372, Miss = 7800, Miss_rate = 0.334, Pending_hits = 547, Reservation_fails = 1704
L2_cache_bank[54]: Access = 24569, Miss = 7914, Miss_rate = 0.322, Pending_hits = 563, Reservation_fails = 2604
L2_cache_bank[55]: Access = 24282, Miss = 7949, Miss_rate = 0.327, Pending_hits = 546, Reservation_fails = 1465
L2_cache_bank[56]: Access = 25818, Miss = 7982, Miss_rate = 0.309, Pending_hits = 520, Reservation_fails = 2118
L2_cache_bank[57]: Access = 24933, Miss = 7735, Miss_rate = 0.310, Pending_hits = 477, Reservation_fails = 956
L2_cache_bank[58]: Access = 24559, Miss = 7742, Miss_rate = 0.315, Pending_hits = 512, Reservation_fails = 1916
L2_cache_bank[59]: Access = 24001, Miss = 7597, Miss_rate = 0.317, Pending_hits = 479, Reservation_fails = 620
L2_cache_bank[60]: Access = 24844, Miss = 7881, Miss_rate = 0.317, Pending_hits = 570, Reservation_fails = 2343
L2_cache_bank[61]: Access = 24983, Miss = 7737, Miss_rate = 0.310, Pending_hits = 483, Reservation_fails = 1391
L2_cache_bank[62]: Access = 24769, Miss = 7753, Miss_rate = 0.313, Pending_hits = 550, Reservation_fails = 2175
L2_cache_bank[63]: Access = 24358, Miss = 7772, Miss_rate = 0.319, Pending_hits = 502, Reservation_fails = 1707
L2_total_cache_accesses = 1619978
L2_total_cache_misses = 505194
L2_total_cache_miss_rate = 0.3119
L2_total_cache_pending_hits = 34805
L2_total_cache_reservation_fails = 121955
L2_total_cache_breakdown:
	L2_cache_stats_breakdown[GLOBAL_ACC_R][HIT] = 999065
	L2_cache_stats_breakdown[GLOBAL_ACC_R][HIT_RESERVED] = 33970
	L2_cache_stats_breakdown[GLOBAL_ACC_R][MISS] = 147282
	L2_cache_stats_breakdown[GLOBAL_ACC_R][RESERVATION_FAIL] = 121955
	L2_cache_stats_breakdown[GLOBAL_ACC_R][SECTOR_MISS] = 329661
	L2_cache_stats_breakdown[GLOBAL_ACC_R][MSHR_HIT] = 33970
	L2_cache_stats_breakdown[LOCAL_ACC_R][HIT] = 0
	L2_cache_stats_breakdown[LOCAL_ACC_R][HIT_RESERVED] = 0
	L2_cache_stats_breakdown[LOCAL_ACC_R][MISS] = 0
	L2_cache_stats_breakdown[LOCAL_ACC_R][RESERVATION_FAIL] = 0
	L2_cache_stats_breakdown[LOCAL_ACC_R][SECTOR_MISS] = 0
	L2_cache_stats_breakdown[LOCAL_ACC_R][MSHR_HIT] = 0
	L2_cache_stats_breakdown[CONST_ACC_R][HIT] = 0
	L2_cache_stats_breakdown[CONST_ACC_R][HIT_RESERVED] = 0
	L2_cache_stats_breakdown[CONST_ACC_R][MISS] = 0
	L2_cache_stats_breakdown[CONST_ACC_R][RESERVATION_FAIL] = 0
	L2_cache_stats_breakdown[CONST_ACC_R][SECTOR_MISS] = 0
	L2_cache_stats_breakdown[CONST_ACC_R][MSHR_HIT] = 0
	L2_cache_stats_breakdown[TEXTURE_ACC_R][HIT] = 0
	L2_cache_stats_breakdown[TEXTURE_ACC_R][HIT_RESERVED] = 0
	L2_cache_stats_breakdown[TEXTURE_ACC_R][MISS] = 0
	L2_cache_stats_breakdown[TEXTURE_ACC_R][RESERVATION_FAIL] = 0
	L2_cache_stats_breakdown[TEXTURE_ACC_R][SECTOR_MISS] = 0
	L2_cache_stats_breakdown[TEXTURE_ACC_R][MSHR_HIT] = 0
	L2_cache_stats_breakdown[GLOBAL_ACC_W][HIT] = 80914
	L2_cache_stats_breakdown[GLOBAL_ACC_W][HIT_RESERVED] = 835
	L2_cache_stats_breakdown[GLOBAL_ACC_W][MISS] = 1441
	L2_cache_stats_breakdown[GLOBAL_ACC_W][RESERVATION_FAIL] = 0
	L2_cache_stats_breakdown[GLOBAL_ACC_W][SECTOR_MISS] = 26810
	L2_cache_stats_breakdown[GLOBAL_ACC_W][MSHR_HIT] = 0
	L2_cache_stats_breakdown[LOCAL_ACC_W][HIT] = 0
	L2_cache_stats_breakdown[LOCAL_ACC_W][HIT_RESERVED] = 0
	L2_cache_stats_breakdown[LOCAL_ACC_W][MISS] = 0
	L2_cache_stats_breakdown[LOCAL_ACC_W][RESERVATION_FAIL] = 0
	L2_cache_stats_breakdown[LOCAL_ACC_W][SECTOR_MISS] = 0
	L2_cache_stats_breakdown[LOCAL_ACC_W][MSHR_HIT] = 0
	L2_cache_stats_breakdown[L1_WRBK_ACC][HIT] = 0
	L2_cache_stats_breakdown[L1_WRBK_ACC][HIT_RESERVED] = 0
	L2_cache_stats_breakdown[L1_WRBK_ACC][MISS] = 0
	L2_cache_stats_breakdown[L1_WRBK_ACC][RESERVATION_FAIL] = 0
	L2_cache_stats_breakdown[L1_WRBK_ACC][SECTOR_MISS] = 0
	L2_cache_stats_breakdown[L1_WRBK_ACC][MSHR_HIT] = 0
	L2_cache_stats_breakdown[L2_WRBK_ACC][HIT] = 0
	L2_cache_stats_breakdown[L2_WRBK_ACC][HIT_RESERVED] = 0
	L2_cache_stats_breakdown[L2_WRBK_ACC][MISS] = 0
	L2_cache_stats_breakdown[L2_WRBK_ACC][RESERVATION_FAIL] = 0
	L2_cache_stats_breakdown[L2_WRBK_ACC][SECTOR_MISS] = 0
	L2_cache_stats_breakdown[L2_WRBK_ACC][MSHR_HIT] = 0
	L2_cache_stats_breakdown[INST_ACC_R][HIT] = 0
	L2_cache_stats_breakdown[INST_ACC_R][HIT_RESERVED] = 0
	L2_cache_stats_breakdown[INST_ACC_R][MISS] = 0
	L2_cache_stats_breakdown[INST_ACC_R][RESERVATION_FAIL] = 0
	L2_cache_stats_breakdown[INST_ACC_R][SECTOR_MISS] = 0
	L2_cache_stats_breakdown[INST_ACC_R][MSHR_HIT] = 0
	L2_cache_stats_breakdown[L1_WR_ALLOC_R][HIT] = 0
	L2_cache_stats_breakdown[L1_WR_ALLOC_R][HIT_RESERVED] = 0
	L2_cache_stats_breakdown[L1_WR_ALLOC_R][MISS] = 0
	L2_cache_stats_breakdown[L1_WR_ALLOC_R][RESERVATION_FAIL] = 0
	L2_cache_stats_breakdown[L1_WR_ALLOC_R][SECTOR_MISS] = 0
	L2_cache_stats_breakdown[L1_WR_ALLOC_R][MSHR_HIT] = 0
	L2_cache_stats_breakdown[L2_WR_ALLOC_R][HIT] = 0
	L2_cache_stats_breakdown[L2_WR_ALLOC_R][HIT_RESERVED] = 0
	L2_cache_stats_breakdown[L2_WR_ALLOC_R][MISS] = 0
	L2_cache_stats_breakdown[L2_WR_ALLOC_R][RESERVATION_FAIL] = 0
	L2_cache_stats_breakdown[L2_WR_ALLOC_R][SECTOR_MISS] = 0
	L2_cache_stats_breakdown[L2_WR_ALLOC_R][MSHR_HIT] = 0
	L2_cache_stats_breakdown[GLOBAL_ACC_R][TOTAL_ACCESS] = 1543948
	L2_cache_stats_breakdown[GLOBAL_ACC_W][TOTAL_ACCESS] = 110000
L2_total_cache_reservation_fail_breakdown:
	L2_cache_stats_fail_breakdown[GLOBAL_ACC_R][MSHR_ENRTY_FAIL] = 112
	L2_cache_stats_fail_breakdown[GLOBAL_ACC_R][MSHR_MERGE_ENRTY_FAIL] = 121843
L2_cache_data_port_util = 0.208
L2_cache_fill_port_util = 0.092

icnt_total_pkts_mem_to_simt=1619978
icnt_total_pkts_simt_to_mem=1619978
LD_mem_lat_dist  0 0 0 0 0 0 0 0 0 0 0 0 0 0 0 0 0 0 0 0 0 0 0 0 0 0 0
ST_mem_lat_dist  0 0 0 0 0 0 0 0 0 0 0 0 0 0 0 0 0 0 0 0 0 0 0 0 0 0 0
----------------------------Interconnect-DETAILS--------------------------------
Req_Network_injected_packets_num = 1619978
Req_Network_cycles = 81313
Req_Network_injected_packets_per_cycle =      19.9227 
Req_Network_conflicts_per_cycle =      41.1850
Req_Network_conflicts_per_cycle_util =      48.2498
Req_Bank_Level_Parallism =      23.3403
Req_Network_in_buffer_full_per_cycle =      45.8433
Req_Network_in_buffer_avg_util =     194.3626
Req_Network_out_buffer_full_per_cycle =       0.0640
Req_Network_out_buffer_avg_util =       7.8675

Reply_Network_injected_packets_num = 1619978
Reply_Network_cycles = 81313
Reply_Network_injected_packets_per_cycle =       19.9227
Reply_Network_conflicts_per_cycle =       19.6804
Reply_Network_conflicts_per_cycle_util =      23.3005
Reply_Bank_Level_Parallism =      23.5873
Reply_Network_in_buffer_full_per_cycle =       0.2639
Reply_Network_in_buffer_avg_util =      38.7750
Reply_Network_out_buffer_full_per_cycle =       0.0000
Reply_Network_out_buffer_avg_util =       0.2490
----------------------------END-of-Interconnect-DETAILS-------------------------


gpgpu_simulation_time = 0 days, 1 hrs, 56 min, 49 sec (7009 sec)
gpgpu_simulation_rate = 58071 (inst/sec)
gpgpu_simulation_rate = 11 (cycle/sec)
gpgpu_silicon_slowdown = 102909090x
GPGPU-Sim: *** simulation thread exiting ***
GPGPU-Sim: *** exit detected ***
