Skipping setup_environment - already set
doing: export -n PTX_SIM_USE_PTX_FILE
doing: export LD_LIBRARY_PATH=/home/min/a/devlinc/Documents/ECE60827/hardware-sim-assgn-2/hardware-simulation-assignment-2-texashodlr/util/job_launching/../../sim_run_9.1/gpgpu-sim-builds/accelsim-commit-a5339f56558d282e0ff48181156f07c28d32c1b6_modified_0.0:/home/min/a/devlinc/Documents/ECE60827/hardware-sim-assgn-2/hardware-simulation-assignment-2-texashodlr/gpu-simulator/gpgpu-sim/lib/gcc-8.3.0/cuda-9010/release:/home/min/a/devlinc/Documents/ECE60827/hardware-sim-assgn-2/hardware-simulation-assignment-2-texashodlr/gpu-simulator/gpgpu-sim/lib/gcc-8.3.0/cuda-9010/release:/package/gcc/8.3.0/lib64:
doing: cd /home/min/a/devlinc/Documents/ECE60827/hardware-sim-assgn-2/hardware-simulation-assignment-2-texashodlr/util/job_launching/../../sim_run_9.1/hotspot-rodinia-3.1/1024_2_2___data_temp_1024___data_power_1024_output_out/QV100-SASS-1B_INSN-8CLUSTER
doing: export OPENCL_CURRENT_TEST_PATH=/home/min/a/devlinc/Documents/ECE60827/hardware-sim-assgn-2/hardware-simulation-assignment-2-texashodlr/util/job_launching/../../sim_run_9.1/hotspot-rodinia-3.1/1024_2_2___data_temp_1024___data_power_1024_output_out/QV100-SASS-1B_INSN-8CLUSTER
doing: export OPENCL_REMOTE_GPU_HOST=REPLACE_REMOTE_HOST
doing 
doing: export PATH=/home/min/a/devlinc/Documents/ECE60827/hardware-sim-assgn-2/hardware-simulation-assignment-2-texashodlr/gpu-simulator/gpgpu-sim/bin:/home/min/a/ee695paa/cuda/bin:/home/min/a/ee695paa/cuda/bin:/home/min/a/ee695paa/cuda/bin:/package/gcc/8.3.0/bin:/usr/lib64/qt-3.3/bin:/usr/lib64/ccache:/usr/local/bin:/usr/bin:/usr/local/sbin:/usr/sbin:.
doing export CUDA_LAUNCH_BLOCKING=1
doing:  /home/min/a/devlinc/Documents/ECE60827/hardware-sim-assgn-2/hardware-simulation-assignment-2-texashodlr/util/job_launching/../../sim_run_9.1/gpgpu-sim-builds/accelsim-commit-a5339f56558d282e0ff48181156f07c28d32c1b6_modified_0.0/accel-sim.out  -config ./gpgpusim.config -trace ./traces/kernelslist.g
Accel-Sim [build accelsim-commit-a5339f56558d282e0ff48181156f07c28d32c1b6_modified_0.0]

        *** GPGPU-Sim Simulator Version 4.0.0  [build gpgpu-sim_git-commit-a5339f56558d282e0ff48181156f07c28d32c1b6_modified_0.0] ***


GPGPU-Sim: Configuration options:

-save_embedded_ptx                      0 # saves ptx files embedded in binary as <n>.ptx
-keep                                   0 # keep intermediate files created by GPGPU-Sim when interfacing with external programs
-gpgpu_ptx_save_converted_ptxplus                    0 # Saved converted ptxplus to a file
-gpgpu_occupancy_sm_number                   70 # The SM number to pass to ptxas when getting register usage for computing GPU occupancy. This parameter is required in the config.
-ptx_opcode_latency_int      4,13,4,5,145,21 # Opcode latencies for integers <ADD,MAX,MUL,MAD,DIV,SHFL>Default 1,1,19,25,145,32
-ptx_opcode_latency_fp          4,13,4,5,39 # Opcode latencies for single precision floating points <ADD,MAX,MUL,MAD,DIV>Default 1,1,1,1,30
-ptx_opcode_latency_dp         8,19,8,8,330 # Opcode latencies for double precision floating points <ADD,MAX,MUL,MAD,DIV>Default 8,8,8,8,335
-ptx_opcode_latency_sfu                  100 # Opcode latencies for SFU instructionsDefault 8
-ptx_opcode_latency_tesnor                   64 # Opcode latencies for Tensor instructionsDefault 64
-ptx_opcode_initiation_int          2,2,2,2,8,4 # Opcode initiation intervals for integers <ADD,MAX,MUL,MAD,DIV,SHFL>Default 1,1,4,4,32,4
-ptx_opcode_initiation_fp            2,2,2,2,4 # Opcode initiation intervals for single precision floating points <ADD,MAX,MUL,MAD,DIV>Default 1,1,1,1,5
-ptx_opcode_initiation_dp          4,4,4,4,130 # Opcode initiation intervals for double precision floating points <ADD,MAX,MUL,MAD,DIV>Default 8,8,8,8,130
-ptx_opcode_initiation_sfu                    8 # Opcode initiation intervals for sfu instructionsDefault 8
-ptx_opcode_initiation_tensor                   64 # Opcode initiation intervals for tensor instructionsDefault 64
-cdp_latency         7200,8000,100,12000,1600 # CDP API latency <cudaStreamCreateWithFlags, cudaGetParameterBufferV2_init_perWarp, cudaGetParameterBufferV2_perKernel, cudaLaunchDeviceV2_init_perWarp, cudaLaunchDevicV2_perKernel>Default 7200,8000,100,12000,1600
-network_mode                           2 # Interconnection network mode
-inter_config_file                   mesh # Interconnection network config file
-icnt_in_buffer_limit                  512 # in_buffer_limit
-icnt_out_buffer_limit                  512 # out_buffer_limit
-icnt_subnets                           2 # subnets
-icnt_arbiter_algo                      1 # arbiter_algo
-icnt_verbose                           0 # inct_verbose
-icnt_grant_cycles                      1 # grant_cycles
-gpgpu_ptx_use_cuobjdump                    1 # Use cuobjdump to extract ptx and sass from binaries
-gpgpu_experimental_lib_support                    0 # Try to extract code from cuda libraries [Broken because of unknown cudaGetExportTable]
-checkpoint_option                      0 #  checkpointing flag (0 = no checkpoint)
-checkpoint_kernel                      1 #  checkpointing during execution of which kernel (1- 1st kernel)
-checkpoint_CTA                         0 #  checkpointing after # of CTA (< less than total CTA)
-resume_option                          0 #  resume flag (0 = no resume)
-resume_kernel                          0 #  Resume from which kernel (1= 1st kernel)
-resume_CTA                             0 #  resume from which CTA 
-checkpoint_CTA_t                       0 #  resume from which CTA 
-checkpoint_insn_Y                      0 #  resume from which CTA 
-gpgpu_ptx_convert_to_ptxplus                    0 # Convert SASS (native ISA) to ptxplus and run ptxplus
-gpgpu_ptx_force_max_capability                   70 # Force maximum compute capability
-gpgpu_ptx_inst_debug_to_file                    0 # Dump executed instructions' debug information to file
-gpgpu_ptx_inst_debug_file       inst_debug.txt # Executed instructions' debug output file
-gpgpu_ptx_inst_debug_thread_uid                    1 # Thread UID for executed instructions' debug output
-gpgpu_simd_model                       1 # 1 = post-dominator
-gpgpu_shader_core_pipeline              2048:32 # shader core pipeline config, i.e., {<nthread>:<warpsize>}
-gpgpu_tex_cache:l1  N:4:128:256,L:R:m:N:L,T:512:8,128:2 # per-shader L1 texture cache  (READ-ONLY) config  {<nsets>:<bsize>:<assoc>,<rep>:<wr>:<alloc>:<wr_alloc>,<mshr>:<N>:<merge>,<mq>:<rf>}
-gpgpu_const_cache:l1 N:128:64:8,L:R:f:N:L,S:2:64,4 # per-shader L1 constant memory cache  (READ-ONLY) config  {<nsets>:<bsize>:<assoc>,<rep>:<wr>:<alloc>:<wr_alloc>,<mshr>:<N>:<merge>,<mq>} 
-gpgpu_cache:il1     N:64:128:16,L:R:f:N:L,S:2:48,4 # shader L1 instruction cache config  {<nsets>:<bsize>:<assoc>,<rep>:<wr>:<alloc>:<wr_alloc>,<mshr>:<N>:<merge>,<mq>} 
-gpgpu_cache:dl1     S:1:128:256,L:L:m:N:L,A:512:8,16:0,32 # per-shader L1 data cache config  {<nsets>:<bsize>:<assoc>,<rep>:<wr>:<alloc>:<wr_alloc>,<mshr>:<N>:<merge>,<mq> | none}
-gpgpu_l1_banks                         4 # The number of L1 cache banks
-gpgpu_l1_banks_byte_interleaving                   32 # l1 banks byte interleaving granularity
-gpgpu_l1_banks_hashing_function                    0 # l1 banks hashing function
-gpgpu_l1_latency                      20 # L1 Hit Latency
-gpgpu_smem_latency                    20 # smem Latency
-gpgpu_cache:dl1PrefL1                 none # per-shader L1 data cache config  {<nsets>:<bsize>:<assoc>,<rep>:<wr>:<alloc>:<wr_alloc>,<mshr>:<N>:<merge>,<mq> | none}
-gpgpu_cache:dl1PrefShared                 none # per-shader L1 data cache config  {<nsets>:<bsize>:<assoc>,<rep>:<wr>:<alloc>:<wr_alloc>,<mshr>:<N>:<merge>,<mq> | none}
-gpgpu_gmem_skip_L1D                    0 # global memory access skip L1D cache (implements -Xptxas -dlcm=cg, default=no skip)
-gpgpu_perfect_mem                      0 # enable perfect memory mode (no cache miss)
-n_regfile_gating_group                    4 # group of lanes that should be read/written together)
-gpgpu_clock_gated_reg_file                    0 # enable clock gated reg file for power calculations
-gpgpu_clock_gated_lanes                    0 # enable clock gated lanes for power calculations
-gpgpu_shader_registers                65536 # Number of registers per shader core. Limits number of concurrent CTAs. (default 8192)
-gpgpu_registers_per_block                65536 # Maximum number of registers per CTA. (default 8192)
-gpgpu_ignore_resources_limitation                    0 # gpgpu_ignore_resources_limitation (default 0)
-gpgpu_shader_cta                      32 # Maximum number of concurrent CTAs in shader (default 8)
-gpgpu_num_cta_barriers                   16 # Maximum number of named barriers per CTA (default 16)
-gpgpu_n_clusters                      80 # number of processing clusters
-gpgpu_n_cores_per_cluster                    8 # number of simd cores per cluster
-gpgpu_n_cluster_ejection_buffer_size                   32 # number of packets in ejection buffer
-gpgpu_n_ldst_response_buffer_size                    2 # number of response packets in ld/st unit ejection buffer
-gpgpu_shmem_per_block                65536 # Size of shared memory per thread block or CTA (default 48kB)
-gpgpu_shmem_size                   98304 # Size of shared memory per shader core (default 16kB)
-gpgpu_adaptive_cache_config                    1 # adaptive_cache_config
-gpgpu_shmem_sizeDefault                98304 # Size of shared memory per shader core (default 16kB)
-gpgpu_shmem_size_PrefL1                16384 # Size of shared memory per shader core (default 16kB)
-gpgpu_shmem_size_PrefShared                16384 # Size of shared memory per shader core (default 16kB)
-gpgpu_shmem_num_banks                   32 # Number of banks in the shared memory in each shader core (default 16)
-gpgpu_shmem_limited_broadcast                    0 # Limit shared memory to do one broadcast per cycle (default on)
-gpgpu_shmem_warp_parts                    1 # Number of portions a warp is divided into for shared memory bank conflict check 
-gpgpu_mem_unit_ports                    1 # The number of memory transactions allowed per core cycle
-gpgpu_shmem_warp_parts                    1 # Number of portions a warp is divided into for shared memory bank conflict check 
-gpgpu_warpdistro_shader                   -1 # Specify which shader core to collect the warp size distribution from
-gpgpu_warp_issue_shader                    0 # Specify which shader core to collect the warp issue distribution from
-gpgpu_local_mem_map                    1 # Mapping from local memory space address to simulated GPU physical address space (default = enabled)
-gpgpu_num_reg_banks                   16 # Number of register banks (default = 8)
-gpgpu_reg_bank_use_warp_id                    0 # Use warp ID in mapping registers to banks (default = off)
-gpgpu_sub_core_model                    1 # Sub Core Volta/Pascal model (default = off)
-gpgpu_enable_specialized_operand_collector                    0 # enable_specialized_operand_collector
-gpgpu_operand_collector_num_units_sp                    4 # number of collector units (default = 4)
-gpgpu_operand_collector_num_units_dp                    0 # number of collector units (default = 0)
-gpgpu_operand_collector_num_units_sfu                    4 # number of collector units (default = 4)
-gpgpu_operand_collector_num_units_int                    0 # number of collector units (default = 0)
-gpgpu_operand_collector_num_units_tensor_core                    4 # number of collector units (default = 4)
-gpgpu_operand_collector_num_units_mem                    2 # number of collector units (default = 2)
-gpgpu_operand_collector_num_units_gen                    8 # number of collector units (default = 0)
-gpgpu_operand_collector_num_in_ports_sp                    1 # number of collector unit in ports (default = 1)
-gpgpu_operand_collector_num_in_ports_dp                    0 # number of collector unit in ports (default = 0)
-gpgpu_operand_collector_num_in_ports_sfu                    1 # number of collector unit in ports (default = 1)
-gpgpu_operand_collector_num_in_ports_int                    0 # number of collector unit in ports (default = 0)
-gpgpu_operand_collector_num_in_ports_tensor_core                    1 # number of collector unit in ports (default = 1)
-gpgpu_operand_collector_num_in_ports_mem                    1 # number of collector unit in ports (default = 1)
-gpgpu_operand_collector_num_in_ports_gen                    8 # number of collector unit in ports (default = 0)
-gpgpu_operand_collector_num_out_ports_sp                    1 # number of collector unit in ports (default = 1)
-gpgpu_operand_collector_num_out_ports_dp                    0 # number of collector unit in ports (default = 0)
-gpgpu_operand_collector_num_out_ports_sfu                    1 # number of collector unit in ports (default = 1)
-gpgpu_operand_collector_num_out_ports_int                    0 # number of collector unit in ports (default = 0)
-gpgpu_operand_collector_num_out_ports_tensor_core                    1 # number of collector unit in ports (default = 1)
-gpgpu_operand_collector_num_out_ports_mem                    1 # number of collector unit in ports (default = 1)
-gpgpu_operand_collector_num_out_ports_gen                    8 # number of collector unit in ports (default = 0)
-gpgpu_coalesce_arch                   60 # Coalescing arch (GT200 = 13, Fermi = 20)
-gpgpu_num_sched_per_core                    4 # Number of warp schedulers per core
-gpgpu_max_insn_issue_per_warp                    1 # Max number of instructions that can be issued per warp in one cycle by scheduler (either 1 or 2)
-gpgpu_dual_issue_diff_exec_units                    1 # should dual issue use two different execution unit resources (Default = 1)
-gpgpu_simt_core_sim_order                    1 # Select the simulation order of cores in a cluster (0=Fix, 1=Round-Robin)
-gpgpu_pipeline_widths 4,4,4,4,4,4,4,4,4,4,8,4,4 # Pipeline widths ID_OC_SP,ID_OC_DP,ID_OC_INT,ID_OC_SFU,ID_OC_MEM,OC_EX_SP,OC_EX_DP,OC_EX_INT,OC_EX_SFU,OC_EX_MEM,EX_WB,ID_OC_TENSOR_CORE,OC_EX_TENSOR_CORE
-gpgpu_tensor_core_avail                    1 # Tensor Core Available (default=0)
-gpgpu_num_sp_units                     4 # Number of SP units (default=1)
-gpgpu_num_dp_units                     4 # Number of DP units (default=0)
-gpgpu_num_int_units                    4 # Number of INT units (default=0)
-gpgpu_num_sfu_units                    4 # Number of SF units (default=1)
-gpgpu_num_tensor_core_units                    4 # Number of tensor_core units (default=1)
-gpgpu_num_mem_units                    1 # Number if ldst units (default=1) WARNING: not hooked up to anything
-gpgpu_scheduler                      gto # Scheduler configuration: < lrr | gto | two_level_active > If two_level_active:<num_active_warps>:<inner_prioritization>:<outer_prioritization>For complete list of prioritization values see shader.h enum scheduler_prioritization_typeDefault: gto
-gpgpu_concurrent_kernel_sm                    0 # Support concurrent kernels on a SM (default = disabled)
-gpgpu_perfect_inst_const_cache                    1 # perfect inst and const cache mode, so all inst and const hits in the cache(default = disabled)
-gpgpu_inst_fetch_throughput                    4 # the number of fetched intruction per warp each cycle
-gpgpu_reg_file_port_throughput                    2 # the number ports of the register file
-specialized_unit_1         1,4,4,4,4,BRA # specialized unit config {<enabled>,<num_units>:<latency>:<initiation>,<ID_OC_SPEC>:<OC_EX_SPEC>,<NAME>}
-specialized_unit_2       1,4,200,4,4,TEX # specialized unit config {<enabled>,<num_units>:<latency>:<initiation>,<ID_OC_SPEC>:<OC_EX_SPEC>,<NAME>}
-specialized_unit_3      1,4,8,4,4,TENSOR # specialized unit config {<enabled>,<num_units>:<latency>:<initiation>,<ID_OC_SPEC>:<OC_EX_SPEC>,<NAME>}
-specialized_unit_4         0,4,4,4,4,BRA # specialized unit config {<enabled>,<num_units>:<latency>:<initiation>,<ID_OC_SPEC>:<OC_EX_SPEC>,<NAME>}
-specialized_unit_5         0,4,4,4,4,BRA # specialized unit config {<enabled>,<num_units>:<latency>:<initiation>,<ID_OC_SPEC>:<OC_EX_SPEC>,<NAME>}
-specialized_unit_6         0,4,4,4,4,BRA # specialized unit config {<enabled>,<num_units>:<latency>:<initiation>,<ID_OC_SPEC>:<OC_EX_SPEC>,<NAME>}
-specialized_unit_7         0,4,4,4,4,BRA # specialized unit config {<enabled>,<num_units>:<latency>:<initiation>,<ID_OC_SPEC>:<OC_EX_SPEC>,<NAME>}
-specialized_unit_8         0,4,4,4,4,BRA # specialized unit config {<enabled>,<num_units>:<latency>:<initiation>,<ID_OC_SPEC>:<OC_EX_SPEC>,<NAME>}
-gpgpu_perf_sim_memcpy                    1 # Fill the L2 cache on memcpy
-gpgpu_simple_dram_model                    0 # simple_dram_model with fixed latency and BW
-gpgpu_dram_scheduler                    1 # 0 = fifo, 1 = FR-FCFS (defaul)
-gpgpu_dram_partition_queues          64:64:64:64 # i2$:$2d:d2$:$2i
-l2_ideal                               0 # Use a ideal L2 cache that always hit
-gpgpu_cache:dl2     S:32:128:24,L:B:m:L:P,A:192:4,32:0,32 # unified banked L2 data cache config  {<nsets>:<bsize>:<assoc>,<rep>:<wr>:<alloc>:<wr_alloc>,<mshr>:<N>:<merge>,<mq>}
-gpgpu_cache:dl2_texture_only                    0 # L2 cache used for texture only
-gpgpu_n_mem                           32 # number of memory modules (e.g. memory controllers) in gpu
-gpgpu_n_sub_partition_per_mchannel                    2 # number of memory subpartition in each memory module
-gpgpu_n_mem_per_ctrlr                    1 # number of memory chips per memory controller
-gpgpu_memlatency_stat                   14 # track and display latency statistics 0x2 enables MC, 0x4 enables queue logs
-gpgpu_frfcfs_dram_sched_queue_size                   64 # 0 = unlimited (default); # entries per chip
-gpgpu_dram_return_queue_size                  192 # 0 = unlimited (default); # entries per chip
-gpgpu_dram_buswidth                   16 # default = 4 bytes (8 bytes per cycle at DDR)
-gpgpu_dram_burst_length                    2 # Burst length of each DRAM request (default = 4 data bus cycle)
-dram_data_command_freq_ratio                    2 # Frequency ratio between DRAM data bus and command bus (default = 2 times, i.e. DDR)
-gpgpu_dram_timing_opt nbk=16:CCD=1:RRD=3:RCD=12:RAS=28:RP=12:RC=40: CL=12:WL=2:CDLR=3:WR=10:nbkgrp=4:CCDL=2:RTPL=3 # DRAM timing parameters = {nbk:tCCD:tRRD:tRCD:tRAS:tRP:tRC:CL:WL:tCDLR:tWR:nbkgrp:tCCDL:tRTPL}
-gpgpu_l2_rop_latency                  160 # ROP queue latency (default 85)
-dram_latency                         100 # DRAM latency (default 30)
-dram_dual_bus_interface                    1 # dual_bus_interface (default = 0) 
-dram_bnk_indexing_policy                    0 # dram_bnk_indexing_policy (0 = normal indexing, 1 = Xoring with the higher bits) (Default = 0)
-dram_bnkgrp_indexing_policy                    1 # dram_bnkgrp_indexing_policy (0 = take higher bits, 1 = take lower bits) (Default = 0)
-dram_seperate_write_queue_enable                    0 # Seperate_Write_Queue_Enable
-dram_write_queue_size             32:28:16 # Write_Queue_Size
-dram_elimnate_rw_turnaround                    0 # elimnate_rw_turnaround i.e set tWTR and tRTW = 0
-icnt_flit_size                        40 # icnt_flit_size
-gpgpu_mem_addr_mapping dramid@8;00000000.00000000.00000000.00000000.0000RRRR.RRRRRRRR.RBBBCCCB.CCCSSSSS # mapping memory address to dram model {dramid@<start bit>;<memory address map>}
-gpgpu_mem_addr_test                    0 # run sweep test to check address mapping for aliased address
-gpgpu_mem_address_mask                    1 # 0 = old addressing mask, 1 = new addressing mask, 2 = new add. mask + flipped bank sel and chip sel bits
-gpgpu_memory_partition_indexing                    2 # 0 = no indexing, 1 = bitwise xoring, 2 = IPoly, 3 = custom indexing
-gpuwattch_xml_file         gpuwattch.xml # GPUWattch XML file
-power_simulation_enabled                    0 # Turn on power simulator (1=On, 0=Off)
-power_per_cycle_dump                    0 # Dump detailed power output each cycle
-power_trace_enabled                    0 # produce a file for the power trace (1=On, 0=Off)
-power_trace_zlevel                     6 # Compression level of the power trace output log (0=no comp, 9=highest)
-steady_power_levels_enabled                    0 # produce a file for the steady power levels (1=On, 0=Off)
-steady_state_definition                  8:4 # allowed deviation:number of samples
-gpgpu_max_cycle                        0 # terminates gpu simulation early (0 = no limit)
-gpgpu_max_insn                1000000000 # terminates gpu simulation early (0 = no limit)
-gpgpu_max_cta                          0 # terminates gpu simulation early (0 = no limit)
-gpgpu_max_completed_cta                    0 # terminates gpu simulation early (0 = no limit)
-gpgpu_runtime_stat                   500 # display runtime statistics such as dram utilization {<freq>:<flag>}
-liveness_message_freq                    1 # Minimum number of seconds between simulation liveness messages (0 = always print)
-gpgpu_compute_capability_major                    7 # Major compute capability version number
-gpgpu_compute_capability_minor                    0 # Minor compute capability version number
-gpgpu_flush_l1_cache                    1 # Flush L1 cache at the end of each kernel call
-gpgpu_flush_l2_cache                    0 # Flush L2 cache at the end of each kernel call
-gpgpu_deadlock_detect                    1 # Stop the simulation at deadlock (1=on (default), 0=off)
-gpgpu_ptx_instruction_classification                    0 # if enabled will classify ptx instruction types per kernel (Max 255 kernels now)
-gpgpu_ptx_sim_mode                     0 # Select between Performance (default) or Functional simulation (1)
-gpgpu_clock_domains 1132.0:1132.0:1132.0:850.0 # Clock Domain Frequencies in MhZ {<Core Clock>:<ICNT Clock>:<L2 Clock>:<DRAM Clock>}
-gpgpu_max_concurrent_kernel                    8 # maximum kernels that can run concurrently on GPU
-gpgpu_cflog_interval                    0 # Interval between each snapshot in control flow logger
-visualizer_enabled                     0 # Turn on visualizer output (1=On, 0=Off)
-visualizer_outputfile                 NULL # Specifies the output log file for visualizer
-visualizer_zlevel                      6 # Compression level of the visualizer output log (0=no comp, 9=highest)
-gpgpu_stack_size_limit                 1024 # GPU thread stack size
-gpgpu_heap_size_limit              8388608 # GPU malloc heap size 
-gpgpu_runtime_sync_depth_limit                    2 # GPU device runtime synchronize depth
-gpgpu_runtime_pending_launch_count_limit                 2048 # GPU device runtime pending launch count
-trace_enabled                          0 # Turn on traces
-trace_components                    none # comma seperated list of traces to enable. Complete list found in trace_streams.tup. Default none
-trace_sampling_core                    0 # The core which is printed using CORE_DPRINTF. Default 0
-trace_sampling_memory_partition                   -1 # The memory partition which is printed using MEMPART_DPRINTF. Default -1 (i.e. all)
-enable_ptx_file_line_stats                    1 # Turn on PTX source line statistic profiling. (1 = On)
-ptx_line_stats_filename gpgpu_inst_stats.txt # Output file for PTX source line statistics.
-gpgpu_kernel_launch_latency                 5000 # Kernel launch latency in cycles. Default: 0
-gpgpu_cdp_enabled                      0 # Turn on CDP
-gpgpu_TB_launch_latency                    0 # thread block launch latency in cycles. Default: 0
-trace               ./traces/kernelslist.g # traces kernel filetraces kernel file directory
-trace_opcode_latency_initiation_int                  4,2 # Opcode latencies and initiation for integers in trace driven mode <latency,initiation>
-trace_opcode_latency_initiation_sp                  4,2 # Opcode latencies and initiation for sp in trace driven mode <latency,initiation>
-trace_opcode_latency_initiation_dp                  8,4 # Opcode latencies and initiation for dp in trace driven mode <latency,initiation>
-trace_opcode_latency_initiation_sfu                 20,8 # Opcode latencies and initiation for sfu in trace driven mode <latency,initiation>
-trace_opcode_latency_initiation_tensor                  8,4 # Opcode latencies and initiation for tensor in trace driven mode <latency,initiation>
-trace_opcode_latency_initiation_spec_op_1                  4,4 # specialized unit config <latency,initiation>
-trace_opcode_latency_initiation_spec_op_2                200,4 # specialized unit config <latency,initiation>
-trace_opcode_latency_initiation_spec_op_3                  8,4 # specialized unit config <latency,initiation>
-trace_opcode_latency_initiation_spec_op_4                  4,4 # specialized unit config <latency,initiation>
-trace_opcode_latency_initiation_spec_op_5                  4,4 # specialized unit config <latency,initiation>
-trace_opcode_latency_initiation_spec_op_6                  4,4 # specialized unit config <latency,initiation>
-trace_opcode_latency_initiation_spec_op_7                  4,4 # specialized unit config <latency,initiation>
-trace_opcode_latency_initiation_spec_op_8                  4,4 # specialized unit config <latency,initiation>
DRAM Timing Options:
nbk                                    16 # number of banks
CCD                                     1 # column to column delay
RRD                                     3 # minimal delay between activation of rows in different banks
RCD                                    12 # row to column delay
RAS                                    28 # time needed to activate row
RP                                     12 # time needed to precharge (deactivate) row
RC                                     40 # row cycle time
CDLR                                    3 # switching from write to read (changes tWTR)
WR                                     10 # last data-in to row precharge
CL                                     12 # CAS latency
WL                                      2 # Write latency
nbkgrp                                  4 # number of bank groups
CCDL                                    2 # column to column delay between accesses to different bank groups
RTPL                                    3 # read to precharge delay between accesses to different bank groups
Total number of memory sub partition = 64
addr_dec_mask[CHIP]  = 0000000000001f00 	high:13 low:8
addr_dec_mask[BK]    = 00000000000e2000 	high:20 low:13
addr_dec_mask[ROW]   = 00000001fff00000 	high:33 low:20
addr_dec_mask[COL]   = 000000000001c0ff 	high:17 low:0
addr_dec_mask[BURST] = 000000000000001f 	high:5 low:0
sub_partition_id_mask = 0000000000002000
GPGPU-Sim uArch: clock freqs: 1132000000.000000:1132000000.000000:1132000000.000000:850000000.000000
GPGPU-Sim uArch: clock periods: 0.00000000088339222615:0.00000000088339222615:0.00000000088339222615:0.00000000117647058824
*** Initializing Memory Statistics ***
GPGPU-Sim uArch: performance model initialization complete.
launching memcpy command : MemcpyHtoD,0x00007f01f1c00000,4194304
launching memcpy command : MemcpyHtoD,0x00007f01f4000000,4194304
Processing kernel ./traces/kernel-1.traceg
-kernel name = _Z14calculate_tempiPfS_S_iiiiffffff
-kernel id = 1
-grid dim = (86,86,1)
-block dim = (16,16,1)
-shmem = 3072
-nregs = 34
-binary version = 70
-cuda stream id = 0
-shmem base_addr = 0x00007f0226000000
-local mem base_addr = 0x00007f0224000000
-nvbit version = 1.5.3
-accelsim tracer version = 3
launching kernel command : ./traces/kernel-1.traceg
GPGPU-Sim uArch: Shader 0 bind to kernel 1 '_Z14calculate_tempiPfS_S_iiiiffffff'
GPGPU-Sim uArch: CTA/core = 7, limited by: regs
GPGPU-Sim: Reconfigure L1 cache to 96KB
thread block = 0,0,0
GPGPU-Sim uArch: Shader 8 bind to kernel 1 '_Z14calculate_tempiPfS_S_iiiiffffff'
thread block = 1,0,0
GPGPU-Sim uArch: Shader 16 bind to kernel 1 '_Z14calculate_tempiPfS_S_iiiiffffff'
thread block = 2,0,0
GPGPU-Sim uArch: Shader 24 bind to kernel 1 '_Z14calculate_tempiPfS_S_iiiiffffff'
thread block = 3,0,0
GPGPU-Sim uArch: Shader 32 bind to kernel 1 '_Z14calculate_tempiPfS_S_iiiiffffff'
thread block = 4,0,0
GPGPU-Sim uArch: Shader 40 bind to kernel 1 '_Z14calculate_tempiPfS_S_iiiiffffff'
thread block = 5,0,0
GPGPU-Sim uArch: Shader 48 bind to kernel 1 '_Z14calculate_tempiPfS_S_iiiiffffff'
thread block = 6,0,0
GPGPU-Sim uArch: Shader 56 bind to kernel 1 '_Z14calculate_tempiPfS_S_iiiiffffff'
thread block = 7,0,0
GPGPU-Sim uArch: Shader 64 bind to kernel 1 '_Z14calculate_tempiPfS_S_iiiiffffff'
thread block = 8,0,0
GPGPU-Sim uArch: Shader 72 bind to kernel 1 '_Z14calculate_tempiPfS_S_iiiiffffff'
thread block = 9,0,0
GPGPU-Sim uArch: Shader 80 bind to kernel 1 '_Z14calculate_tempiPfS_S_iiiiffffff'
thread block = 10,0,0
GPGPU-Sim uArch: Shader 88 bind to kernel 1 '_Z14calculate_tempiPfS_S_iiiiffffff'
thread block = 11,0,0
GPGPU-Sim uArch: Shader 96 bind to kernel 1 '_Z14calculate_tempiPfS_S_iiiiffffff'
thread block = 12,0,0
GPGPU-Sim uArch: Shader 104 bind to kernel 1 '_Z14calculate_tempiPfS_S_iiiiffffff'
thread block = 13,0,0
GPGPU-Sim uArch: Shader 112 bind to kernel 1 '_Z14calculate_tempiPfS_S_iiiiffffff'
thread block = 14,0,0
GPGPU-Sim uArch: Shader 120 bind to kernel 1 '_Z14calculate_tempiPfS_S_iiiiffffff'
thread block = 15,0,0
GPGPU-Sim uArch: Shader 128 bind to kernel 1 '_Z14calculate_tempiPfS_S_iiiiffffff'
thread block = 16,0,0
GPGPU-Sim uArch: Shader 136 bind to kernel 1 '_Z14calculate_tempiPfS_S_iiiiffffff'
thread block = 17,0,0
GPGPU-Sim uArch: Shader 144 bind to kernel 1 '_Z14calculate_tempiPfS_S_iiiiffffff'
thread block = 18,0,0
GPGPU-Sim uArch: Shader 152 bind to kernel 1 '_Z14calculate_tempiPfS_S_iiiiffffff'
thread block = 19,0,0
GPGPU-Sim uArch: Shader 160 bind to kernel 1 '_Z14calculate_tempiPfS_S_iiiiffffff'
thread block = 20,0,0
GPGPU-Sim uArch: Shader 168 bind to kernel 1 '_Z14calculate_tempiPfS_S_iiiiffffff'
thread block = 21,0,0
GPGPU-Sim uArch: Shader 176 bind to kernel 1 '_Z14calculate_tempiPfS_S_iiiiffffff'
thread block = 22,0,0
GPGPU-Sim uArch: Shader 184 bind to kernel 1 '_Z14calculate_tempiPfS_S_iiiiffffff'
thread block = 23,0,0
GPGPU-Sim uArch: Shader 192 bind to kernel 1 '_Z14calculate_tempiPfS_S_iiiiffffff'
thread block = 24,0,0
GPGPU-Sim uArch: Shader 200 bind to kernel 1 '_Z14calculate_tempiPfS_S_iiiiffffff'
thread block = 25,0,0
GPGPU-Sim uArch: Shader 208 bind to kernel 1 '_Z14calculate_tempiPfS_S_iiiiffffff'
thread block = 26,0,0
GPGPU-Sim uArch: Shader 216 bind to kernel 1 '_Z14calculate_tempiPfS_S_iiiiffffff'
thread block = 27,0,0
GPGPU-Sim uArch: Shader 224 bind to kernel 1 '_Z14calculate_tempiPfS_S_iiiiffffff'
thread block = 28,0,0
GPGPU-Sim uArch: Shader 232 bind to kernel 1 '_Z14calculate_tempiPfS_S_iiiiffffff'
thread block = 29,0,0
GPGPU-Sim uArch: Shader 240 bind to kernel 1 '_Z14calculate_tempiPfS_S_iiiiffffff'
thread block = 30,0,0
GPGPU-Sim uArch: Shader 248 bind to kernel 1 '_Z14calculate_tempiPfS_S_iiiiffffff'
thread block = 31,0,0
GPGPU-Sim uArch: Shader 256 bind to kernel 1 '_Z14calculate_tempiPfS_S_iiiiffffff'
thread block = 32,0,0
GPGPU-Sim uArch: Shader 264 bind to kernel 1 '_Z14calculate_tempiPfS_S_iiiiffffff'
thread block = 33,0,0
GPGPU-Sim uArch: Shader 272 bind to kernel 1 '_Z14calculate_tempiPfS_S_iiiiffffff'
thread block = 34,0,0
GPGPU-Sim uArch: Shader 280 bind to kernel 1 '_Z14calculate_tempiPfS_S_iiiiffffff'
thread block = 35,0,0
GPGPU-Sim uArch: Shader 288 bind to kernel 1 '_Z14calculate_tempiPfS_S_iiiiffffff'
thread block = 36,0,0
GPGPU-Sim uArch: Shader 296 bind to kernel 1 '_Z14calculate_tempiPfS_S_iiiiffffff'
thread block = 37,0,0
GPGPU-Sim uArch: Shader 304 bind to kernel 1 '_Z14calculate_tempiPfS_S_iiiiffffff'
thread block = 38,0,0
GPGPU-Sim uArch: Shader 312 bind to kernel 1 '_Z14calculate_tempiPfS_S_iiiiffffff'
thread block = 39,0,0
GPGPU-Sim uArch: Shader 320 bind to kernel 1 '_Z14calculate_tempiPfS_S_iiiiffffff'
thread block = 40,0,0
GPGPU-Sim uArch: Shader 328 bind to kernel 1 '_Z14calculate_tempiPfS_S_iiiiffffff'
thread block = 41,0,0
GPGPU-Sim uArch: Shader 336 bind to kernel 1 '_Z14calculate_tempiPfS_S_iiiiffffff'
thread block = 42,0,0
GPGPU-Sim uArch: Shader 344 bind to kernel 1 '_Z14calculate_tempiPfS_S_iiiiffffff'
thread block = 43,0,0
GPGPU-Sim uArch: Shader 352 bind to kernel 1 '_Z14calculate_tempiPfS_S_iiiiffffff'
thread block = 44,0,0
GPGPU-Sim uArch: Shader 360 bind to kernel 1 '_Z14calculate_tempiPfS_S_iiiiffffff'
thread block = 45,0,0
GPGPU-Sim uArch: Shader 368 bind to kernel 1 '_Z14calculate_tempiPfS_S_iiiiffffff'
thread block = 46,0,0
GPGPU-Sim uArch: Shader 376 bind to kernel 1 '_Z14calculate_tempiPfS_S_iiiiffffff'
thread block = 47,0,0
GPGPU-Sim uArch: Shader 384 bind to kernel 1 '_Z14calculate_tempiPfS_S_iiiiffffff'
thread block = 48,0,0
GPGPU-Sim uArch: Shader 392 bind to kernel 1 '_Z14calculate_tempiPfS_S_iiiiffffff'
thread block = 49,0,0
GPGPU-Sim uArch: Shader 400 bind to kernel 1 '_Z14calculate_tempiPfS_S_iiiiffffff'
thread block = 50,0,0
GPGPU-Sim uArch: Shader 408 bind to kernel 1 '_Z14calculate_tempiPfS_S_iiiiffffff'
thread block = 51,0,0
GPGPU-Sim uArch: Shader 416 bind to kernel 1 '_Z14calculate_tempiPfS_S_iiiiffffff'
thread block = 52,0,0
GPGPU-Sim uArch: Shader 424 bind to kernel 1 '_Z14calculate_tempiPfS_S_iiiiffffff'
thread block = 53,0,0
GPGPU-Sim uArch: Shader 432 bind to kernel 1 '_Z14calculate_tempiPfS_S_iiiiffffff'
thread block = 54,0,0
GPGPU-Sim uArch: Shader 440 bind to kernel 1 '_Z14calculate_tempiPfS_S_iiiiffffff'
thread block = 55,0,0
GPGPU-Sim uArch: Shader 448 bind to kernel 1 '_Z14calculate_tempiPfS_S_iiiiffffff'
thread block = 56,0,0
GPGPU-Sim uArch: Shader 456 bind to kernel 1 '_Z14calculate_tempiPfS_S_iiiiffffff'
thread block = 57,0,0
GPGPU-Sim uArch: Shader 464 bind to kernel 1 '_Z14calculate_tempiPfS_S_iiiiffffff'
thread block = 58,0,0
GPGPU-Sim uArch: Shader 472 bind to kernel 1 '_Z14calculate_tempiPfS_S_iiiiffffff'
thread block = 59,0,0
GPGPU-Sim uArch: Shader 480 bind to kernel 1 '_Z14calculate_tempiPfS_S_iiiiffffff'
thread block = 60,0,0
GPGPU-Sim uArch: Shader 488 bind to kernel 1 '_Z14calculate_tempiPfS_S_iiiiffffff'
thread block = 61,0,0
GPGPU-Sim uArch: Shader 496 bind to kernel 1 '_Z14calculate_tempiPfS_S_iiiiffffff'
thread block = 62,0,0
GPGPU-Sim uArch: Shader 504 bind to kernel 1 '_Z14calculate_tempiPfS_S_iiiiffffff'
thread block = 63,0,0
GPGPU-Sim uArch: Shader 512 bind to kernel 1 '_Z14calculate_tempiPfS_S_iiiiffffff'
thread block = 64,0,0
GPGPU-Sim uArch: Shader 520 bind to kernel 1 '_Z14calculate_tempiPfS_S_iiiiffffff'
thread block = 65,0,0
GPGPU-Sim uArch: Shader 528 bind to kernel 1 '_Z14calculate_tempiPfS_S_iiiiffffff'
thread block = 66,0,0
GPGPU-Sim uArch: Shader 536 bind to kernel 1 '_Z14calculate_tempiPfS_S_iiiiffffff'
thread block = 67,0,0
GPGPU-Sim uArch: Shader 544 bind to kernel 1 '_Z14calculate_tempiPfS_S_iiiiffffff'
thread block = 68,0,0
GPGPU-Sim uArch: Shader 552 bind to kernel 1 '_Z14calculate_tempiPfS_S_iiiiffffff'
thread block = 69,0,0
GPGPU-Sim uArch: Shader 560 bind to kernel 1 '_Z14calculate_tempiPfS_S_iiiiffffff'
thread block = 70,0,0
GPGPU-Sim uArch: Shader 568 bind to kernel 1 '_Z14calculate_tempiPfS_S_iiiiffffff'
thread block = 71,0,0
GPGPU-Sim uArch: Shader 576 bind to kernel 1 '_Z14calculate_tempiPfS_S_iiiiffffff'
thread block = 72,0,0
GPGPU-Sim uArch: Shader 584 bind to kernel 1 '_Z14calculate_tempiPfS_S_iiiiffffff'
thread block = 73,0,0
GPGPU-Sim uArch: Shader 592 bind to kernel 1 '_Z14calculate_tempiPfS_S_iiiiffffff'
thread block = 74,0,0
GPGPU-Sim uArch: Shader 600 bind to kernel 1 '_Z14calculate_tempiPfS_S_iiiiffffff'
thread block = 75,0,0
GPGPU-Sim uArch: Shader 608 bind to kernel 1 '_Z14calculate_tempiPfS_S_iiiiffffff'
thread block = 76,0,0
GPGPU-Sim uArch: Shader 616 bind to kernel 1 '_Z14calculate_tempiPfS_S_iiiiffffff'
thread block = 77,0,0
GPGPU-Sim uArch: Shader 624 bind to kernel 1 '_Z14calculate_tempiPfS_S_iiiiffffff'
thread block = 78,0,0
GPGPU-Sim uArch: Shader 632 bind to kernel 1 '_Z14calculate_tempiPfS_S_iiiiffffff'
thread block = 79,0,0
GPGPU-Sim uArch: Shader 1 bind to kernel 1 '_Z14calculate_tempiPfS_S_iiiiffffff'
thread block = 80,0,0
GPGPU-Sim uArch: Shader 9 bind to kernel 1 '_Z14calculate_tempiPfS_S_iiiiffffff'
thread block = 81,0,0
GPGPU-Sim uArch: Shader 17 bind to kernel 1 '_Z14calculate_tempiPfS_S_iiiiffffff'
thread block = 82,0,0
GPGPU-Sim uArch: Shader 25 bind to kernel 1 '_Z14calculate_tempiPfS_S_iiiiffffff'
thread block = 83,0,0
GPGPU-Sim uArch: Shader 33 bind to kernel 1 '_Z14calculate_tempiPfS_S_iiiiffffff'
thread block = 84,0,0
GPGPU-Sim uArch: Shader 41 bind to kernel 1 '_Z14calculate_tempiPfS_S_iiiiffffff'
thread block = 85,0,0
GPGPU-Sim uArch: Shader 49 bind to kernel 1 '_Z14calculate_tempiPfS_S_iiiiffffff'
thread block = 0,1,0
GPGPU-Sim uArch: Shader 57 bind to kernel 1 '_Z14calculate_tempiPfS_S_iiiiffffff'
thread block = 1,1,0
GPGPU-Sim uArch: Shader 65 bind to kernel 1 '_Z14calculate_tempiPfS_S_iiiiffffff'
thread block = 2,1,0
GPGPU-Sim uArch: Shader 73 bind to kernel 1 '_Z14calculate_tempiPfS_S_iiiiffffff'
thread block = 3,1,0
GPGPU-Sim uArch: Shader 81 bind to kernel 1 '_Z14calculate_tempiPfS_S_iiiiffffff'
thread block = 4,1,0
GPGPU-Sim uArch: Shader 89 bind to kernel 1 '_Z14calculate_tempiPfS_S_iiiiffffff'
thread block = 5,1,0
GPGPU-Sim uArch: Shader 97 bind to kernel 1 '_Z14calculate_tempiPfS_S_iiiiffffff'
thread block = 6,1,0
GPGPU-Sim uArch: Shader 105 bind to kernel 1 '_Z14calculate_tempiPfS_S_iiiiffffff'
thread block = 7,1,0
GPGPU-Sim uArch: Shader 113 bind to kernel 1 '_Z14calculate_tempiPfS_S_iiiiffffff'
thread block = 8,1,0
GPGPU-Sim uArch: Shader 121 bind to kernel 1 '_Z14calculate_tempiPfS_S_iiiiffffff'
thread block = 9,1,0
GPGPU-Sim uArch: Shader 129 bind to kernel 1 '_Z14calculate_tempiPfS_S_iiiiffffff'
thread block = 10,1,0
GPGPU-Sim uArch: Shader 137 bind to kernel 1 '_Z14calculate_tempiPfS_S_iiiiffffff'
thread block = 11,1,0
GPGPU-Sim uArch: Shader 145 bind to kernel 1 '_Z14calculate_tempiPfS_S_iiiiffffff'
thread block = 12,1,0
GPGPU-Sim uArch: Shader 153 bind to kernel 1 '_Z14calculate_tempiPfS_S_iiiiffffff'
thread block = 13,1,0
GPGPU-Sim uArch: Shader 161 bind to kernel 1 '_Z14calculate_tempiPfS_S_iiiiffffff'
thread block = 14,1,0
GPGPU-Sim uArch: Shader 169 bind to kernel 1 '_Z14calculate_tempiPfS_S_iiiiffffff'
thread block = 15,1,0
GPGPU-Sim uArch: Shader 177 bind to kernel 1 '_Z14calculate_tempiPfS_S_iiiiffffff'
thread block = 16,1,0
GPGPU-Sim uArch: Shader 185 bind to kernel 1 '_Z14calculate_tempiPfS_S_iiiiffffff'
thread block = 17,1,0
GPGPU-Sim uArch: Shader 193 bind to kernel 1 '_Z14calculate_tempiPfS_S_iiiiffffff'
thread block = 18,1,0
GPGPU-Sim uArch: Shader 201 bind to kernel 1 '_Z14calculate_tempiPfS_S_iiiiffffff'
thread block = 19,1,0
GPGPU-Sim uArch: Shader 209 bind to kernel 1 '_Z14calculate_tempiPfS_S_iiiiffffff'
thread block = 20,1,0
GPGPU-Sim uArch: Shader 217 bind to kernel 1 '_Z14calculate_tempiPfS_S_iiiiffffff'
thread block = 21,1,0
GPGPU-Sim uArch: Shader 225 bind to kernel 1 '_Z14calculate_tempiPfS_S_iiiiffffff'
thread block = 22,1,0
GPGPU-Sim uArch: Shader 233 bind to kernel 1 '_Z14calculate_tempiPfS_S_iiiiffffff'
thread block = 23,1,0
GPGPU-Sim uArch: Shader 241 bind to kernel 1 '_Z14calculate_tempiPfS_S_iiiiffffff'
thread block = 24,1,0
GPGPU-Sim uArch: Shader 249 bind to kernel 1 '_Z14calculate_tempiPfS_S_iiiiffffff'
thread block = 25,1,0
GPGPU-Sim uArch: Shader 257 bind to kernel 1 '_Z14calculate_tempiPfS_S_iiiiffffff'
thread block = 26,1,0
GPGPU-Sim uArch: Shader 265 bind to kernel 1 '_Z14calculate_tempiPfS_S_iiiiffffff'
thread block = 27,1,0
GPGPU-Sim uArch: Shader 273 bind to kernel 1 '_Z14calculate_tempiPfS_S_iiiiffffff'
thread block = 28,1,0
GPGPU-Sim uArch: Shader 281 bind to kernel 1 '_Z14calculate_tempiPfS_S_iiiiffffff'
thread block = 29,1,0
GPGPU-Sim uArch: Shader 289 bind to kernel 1 '_Z14calculate_tempiPfS_S_iiiiffffff'
thread block = 30,1,0
GPGPU-Sim uArch: Shader 297 bind to kernel 1 '_Z14calculate_tempiPfS_S_iiiiffffff'
thread block = 31,1,0
GPGPU-Sim uArch: Shader 305 bind to kernel 1 '_Z14calculate_tempiPfS_S_iiiiffffff'
thread block = 32,1,0
GPGPU-Sim uArch: Shader 313 bind to kernel 1 '_Z14calculate_tempiPfS_S_iiiiffffff'
thread block = 33,1,0
GPGPU-Sim uArch: Shader 321 bind to kernel 1 '_Z14calculate_tempiPfS_S_iiiiffffff'
thread block = 34,1,0
GPGPU-Sim uArch: Shader 329 bind to kernel 1 '_Z14calculate_tempiPfS_S_iiiiffffff'
thread block = 35,1,0
GPGPU-Sim uArch: Shader 337 bind to kernel 1 '_Z14calculate_tempiPfS_S_iiiiffffff'
thread block = 36,1,0
GPGPU-Sim uArch: Shader 345 bind to kernel 1 '_Z14calculate_tempiPfS_S_iiiiffffff'
thread block = 37,1,0
GPGPU-Sim uArch: Shader 353 bind to kernel 1 '_Z14calculate_tempiPfS_S_iiiiffffff'
thread block = 38,1,0
GPGPU-Sim uArch: Shader 361 bind to kernel 1 '_Z14calculate_tempiPfS_S_iiiiffffff'
thread block = 39,1,0
GPGPU-Sim uArch: Shader 369 bind to kernel 1 '_Z14calculate_tempiPfS_S_iiiiffffff'
thread block = 40,1,0
GPGPU-Sim uArch: Shader 377 bind to kernel 1 '_Z14calculate_tempiPfS_S_iiiiffffff'
thread block = 41,1,0
GPGPU-Sim uArch: Shader 385 bind to kernel 1 '_Z14calculate_tempiPfS_S_iiiiffffff'
thread block = 42,1,0
GPGPU-Sim uArch: Shader 393 bind to kernel 1 '_Z14calculate_tempiPfS_S_iiiiffffff'
thread block = 43,1,0
GPGPU-Sim uArch: Shader 401 bind to kernel 1 '_Z14calculate_tempiPfS_S_iiiiffffff'
thread block = 44,1,0
GPGPU-Sim uArch: Shader 409 bind to kernel 1 '_Z14calculate_tempiPfS_S_iiiiffffff'
thread block = 45,1,0
GPGPU-Sim uArch: Shader 417 bind to kernel 1 '_Z14calculate_tempiPfS_S_iiiiffffff'
thread block = 46,1,0
GPGPU-Sim uArch: Shader 425 bind to kernel 1 '_Z14calculate_tempiPfS_S_iiiiffffff'
thread block = 47,1,0
GPGPU-Sim uArch: Shader 433 bind to kernel 1 '_Z14calculate_tempiPfS_S_iiiiffffff'
thread block = 48,1,0
GPGPU-Sim uArch: Shader 441 bind to kernel 1 '_Z14calculate_tempiPfS_S_iiiiffffff'
thread block = 49,1,0
GPGPU-Sim uArch: Shader 449 bind to kernel 1 '_Z14calculate_tempiPfS_S_iiiiffffff'
thread block = 50,1,0
GPGPU-Sim uArch: Shader 457 bind to kernel 1 '_Z14calculate_tempiPfS_S_iiiiffffff'
thread block = 51,1,0
GPGPU-Sim uArch: Shader 465 bind to kernel 1 '_Z14calculate_tempiPfS_S_iiiiffffff'
thread block = 52,1,0
GPGPU-Sim uArch: Shader 473 bind to kernel 1 '_Z14calculate_tempiPfS_S_iiiiffffff'
thread block = 53,1,0
GPGPU-Sim uArch: Shader 481 bind to kernel 1 '_Z14calculate_tempiPfS_S_iiiiffffff'
thread block = 54,1,0
GPGPU-Sim uArch: Shader 489 bind to kernel 1 '_Z14calculate_tempiPfS_S_iiiiffffff'
thread block = 55,1,0
GPGPU-Sim uArch: Shader 497 bind to kernel 1 '_Z14calculate_tempiPfS_S_iiiiffffff'
thread block = 56,1,0
GPGPU-Sim uArch: Shader 505 bind to kernel 1 '_Z14calculate_tempiPfS_S_iiiiffffff'
thread block = 57,1,0
GPGPU-Sim uArch: Shader 513 bind to kernel 1 '_Z14calculate_tempiPfS_S_iiiiffffff'
thread block = 58,1,0
GPGPU-Sim uArch: Shader 521 bind to kernel 1 '_Z14calculate_tempiPfS_S_iiiiffffff'
thread block = 59,1,0
GPGPU-Sim uArch: Shader 529 bind to kernel 1 '_Z14calculate_tempiPfS_S_iiiiffffff'
thread block = 60,1,0
GPGPU-Sim uArch: Shader 537 bind to kernel 1 '_Z14calculate_tempiPfS_S_iiiiffffff'
thread block = 61,1,0
GPGPU-Sim uArch: Shader 545 bind to kernel 1 '_Z14calculate_tempiPfS_S_iiiiffffff'
thread block = 62,1,0
GPGPU-Sim uArch: Shader 553 bind to kernel 1 '_Z14calculate_tempiPfS_S_iiiiffffff'
thread block = 63,1,0
GPGPU-Sim uArch: Shader 561 bind to kernel 1 '_Z14calculate_tempiPfS_S_iiiiffffff'
thread block = 64,1,0
GPGPU-Sim uArch: Shader 569 bind to kernel 1 '_Z14calculate_tempiPfS_S_iiiiffffff'
thread block = 65,1,0
GPGPU-Sim uArch: Shader 577 bind to kernel 1 '_Z14calculate_tempiPfS_S_iiiiffffff'
thread block = 66,1,0
GPGPU-Sim uArch: Shader 585 bind to kernel 1 '_Z14calculate_tempiPfS_S_iiiiffffff'
thread block = 67,1,0
GPGPU-Sim uArch: Shader 593 bind to kernel 1 '_Z14calculate_tempiPfS_S_iiiiffffff'
thread block = 68,1,0
GPGPU-Sim uArch: Shader 601 bind to kernel 1 '_Z14calculate_tempiPfS_S_iiiiffffff'
thread block = 69,1,0
GPGPU-Sim uArch: Shader 609 bind to kernel 1 '_Z14calculate_tempiPfS_S_iiiiffffff'
thread block = 70,1,0
GPGPU-Sim uArch: Shader 617 bind to kernel 1 '_Z14calculate_tempiPfS_S_iiiiffffff'
thread block = 71,1,0
GPGPU-Sim uArch: Shader 625 bind to kernel 1 '_Z14calculate_tempiPfS_S_iiiiffffff'
thread block = 72,1,0
GPGPU-Sim uArch: Shader 633 bind to kernel 1 '_Z14calculate_tempiPfS_S_iiiiffffff'
thread block = 73,1,0
GPGPU-Sim uArch: Shader 2 bind to kernel 1 '_Z14calculate_tempiPfS_S_iiiiffffff'
thread block = 74,1,0
GPGPU-Sim uArch: Shader 10 bind to kernel 1 '_Z14calculate_tempiPfS_S_iiiiffffff'
thread block = 75,1,0
GPGPU-Sim uArch: Shader 18 bind to kernel 1 '_Z14calculate_tempiPfS_S_iiiiffffff'
thread block = 76,1,0
GPGPU-Sim uArch: Shader 26 bind to kernel 1 '_Z14calculate_tempiPfS_S_iiiiffffff'
thread block = 77,1,0
GPGPU-Sim uArch: Shader 34 bind to kernel 1 '_Z14calculate_tempiPfS_S_iiiiffffff'
thread block = 78,1,0
GPGPU-Sim uArch: Shader 42 bind to kernel 1 '_Z14calculate_tempiPfS_S_iiiiffffff'
thread block = 79,1,0
GPGPU-Sim uArch: Shader 50 bind to kernel 1 '_Z14calculate_tempiPfS_S_iiiiffffff'
thread block = 80,1,0
GPGPU-Sim uArch: Shader 58 bind to kernel 1 '_Z14calculate_tempiPfS_S_iiiiffffff'
thread block = 81,1,0
GPGPU-Sim uArch: Shader 66 bind to kernel 1 '_Z14calculate_tempiPfS_S_iiiiffffff'
thread block = 82,1,0
GPGPU-Sim uArch: Shader 74 bind to kernel 1 '_Z14calculate_tempiPfS_S_iiiiffffff'
thread block = 83,1,0
GPGPU-Sim uArch: Shader 82 bind to kernel 1 '_Z14calculate_tempiPfS_S_iiiiffffff'
thread block = 84,1,0
GPGPU-Sim uArch: Shader 90 bind to kernel 1 '_Z14calculate_tempiPfS_S_iiiiffffff'
thread block = 85,1,0
GPGPU-Sim uArch: Shader 98 bind to kernel 1 '_Z14calculate_tempiPfS_S_iiiiffffff'
thread block = 0,2,0
GPGPU-Sim uArch: Shader 106 bind to kernel 1 '_Z14calculate_tempiPfS_S_iiiiffffff'
thread block = 1,2,0
GPGPU-Sim uArch: Shader 114 bind to kernel 1 '_Z14calculate_tempiPfS_S_iiiiffffff'
thread block = 2,2,0
GPGPU-Sim uArch: Shader 122 bind to kernel 1 '_Z14calculate_tempiPfS_S_iiiiffffff'
thread block = 3,2,0
GPGPU-Sim uArch: Shader 130 bind to kernel 1 '_Z14calculate_tempiPfS_S_iiiiffffff'
thread block = 4,2,0
GPGPU-Sim uArch: Shader 138 bind to kernel 1 '_Z14calculate_tempiPfS_S_iiiiffffff'
thread block = 5,2,0
GPGPU-Sim uArch: Shader 146 bind to kernel 1 '_Z14calculate_tempiPfS_S_iiiiffffff'
thread block = 6,2,0
GPGPU-Sim uArch: Shader 154 bind to kernel 1 '_Z14calculate_tempiPfS_S_iiiiffffff'
thread block = 7,2,0
GPGPU-Sim uArch: Shader 162 bind to kernel 1 '_Z14calculate_tempiPfS_S_iiiiffffff'
thread block = 8,2,0
GPGPU-Sim uArch: Shader 170 bind to kernel 1 '_Z14calculate_tempiPfS_S_iiiiffffff'
thread block = 9,2,0
GPGPU-Sim uArch: Shader 178 bind to kernel 1 '_Z14calculate_tempiPfS_S_iiiiffffff'
thread block = 10,2,0
GPGPU-Sim uArch: Shader 186 bind to kernel 1 '_Z14calculate_tempiPfS_S_iiiiffffff'
thread block = 11,2,0
GPGPU-Sim uArch: Shader 194 bind to kernel 1 '_Z14calculate_tempiPfS_S_iiiiffffff'
thread block = 12,2,0
GPGPU-Sim uArch: Shader 202 bind to kernel 1 '_Z14calculate_tempiPfS_S_iiiiffffff'
thread block = 13,2,0
GPGPU-Sim uArch: Shader 210 bind to kernel 1 '_Z14calculate_tempiPfS_S_iiiiffffff'
thread block = 14,2,0
GPGPU-Sim uArch: Shader 218 bind to kernel 1 '_Z14calculate_tempiPfS_S_iiiiffffff'
thread block = 15,2,0
GPGPU-Sim uArch: Shader 226 bind to kernel 1 '_Z14calculate_tempiPfS_S_iiiiffffff'
thread block = 16,2,0
GPGPU-Sim uArch: Shader 234 bind to kernel 1 '_Z14calculate_tempiPfS_S_iiiiffffff'
thread block = 17,2,0
GPGPU-Sim uArch: Shader 242 bind to kernel 1 '_Z14calculate_tempiPfS_S_iiiiffffff'
thread block = 18,2,0
GPGPU-Sim uArch: Shader 250 bind to kernel 1 '_Z14calculate_tempiPfS_S_iiiiffffff'
thread block = 19,2,0
GPGPU-Sim uArch: Shader 258 bind to kernel 1 '_Z14calculate_tempiPfS_S_iiiiffffff'
thread block = 20,2,0
GPGPU-Sim uArch: Shader 266 bind to kernel 1 '_Z14calculate_tempiPfS_S_iiiiffffff'
thread block = 21,2,0
GPGPU-Sim uArch: Shader 274 bind to kernel 1 '_Z14calculate_tempiPfS_S_iiiiffffff'
thread block = 22,2,0
GPGPU-Sim uArch: Shader 282 bind to kernel 1 '_Z14calculate_tempiPfS_S_iiiiffffff'
thread block = 23,2,0
GPGPU-Sim uArch: Shader 290 bind to kernel 1 '_Z14calculate_tempiPfS_S_iiiiffffff'
thread block = 24,2,0
GPGPU-Sim uArch: Shader 298 bind to kernel 1 '_Z14calculate_tempiPfS_S_iiiiffffff'
thread block = 25,2,0
GPGPU-Sim uArch: Shader 306 bind to kernel 1 '_Z14calculate_tempiPfS_S_iiiiffffff'
thread block = 26,2,0
GPGPU-Sim uArch: Shader 314 bind to kernel 1 '_Z14calculate_tempiPfS_S_iiiiffffff'
thread block = 27,2,0
GPGPU-Sim uArch: Shader 322 bind to kernel 1 '_Z14calculate_tempiPfS_S_iiiiffffff'
thread block = 28,2,0
GPGPU-Sim uArch: Shader 330 bind to kernel 1 '_Z14calculate_tempiPfS_S_iiiiffffff'
thread block = 29,2,0
GPGPU-Sim uArch: Shader 338 bind to kernel 1 '_Z14calculate_tempiPfS_S_iiiiffffff'
thread block = 30,2,0
GPGPU-Sim uArch: Shader 346 bind to kernel 1 '_Z14calculate_tempiPfS_S_iiiiffffff'
thread block = 31,2,0
GPGPU-Sim uArch: Shader 354 bind to kernel 1 '_Z14calculate_tempiPfS_S_iiiiffffff'
thread block = 32,2,0
GPGPU-Sim uArch: Shader 362 bind to kernel 1 '_Z14calculate_tempiPfS_S_iiiiffffff'
thread block = 33,2,0
GPGPU-Sim uArch: Shader 370 bind to kernel 1 '_Z14calculate_tempiPfS_S_iiiiffffff'
thread block = 34,2,0
GPGPU-Sim uArch: Shader 378 bind to kernel 1 '_Z14calculate_tempiPfS_S_iiiiffffff'
thread block = 35,2,0
GPGPU-Sim uArch: Shader 386 bind to kernel 1 '_Z14calculate_tempiPfS_S_iiiiffffff'
thread block = 36,2,0
GPGPU-Sim uArch: Shader 394 bind to kernel 1 '_Z14calculate_tempiPfS_S_iiiiffffff'
thread block = 37,2,0
GPGPU-Sim uArch: Shader 402 bind to kernel 1 '_Z14calculate_tempiPfS_S_iiiiffffff'
thread block = 38,2,0
GPGPU-Sim uArch: Shader 410 bind to kernel 1 '_Z14calculate_tempiPfS_S_iiiiffffff'
thread block = 39,2,0
GPGPU-Sim uArch: Shader 418 bind to kernel 1 '_Z14calculate_tempiPfS_S_iiiiffffff'
thread block = 40,2,0
GPGPU-Sim uArch: Shader 426 bind to kernel 1 '_Z14calculate_tempiPfS_S_iiiiffffff'
thread block = 41,2,0
GPGPU-Sim uArch: Shader 434 bind to kernel 1 '_Z14calculate_tempiPfS_S_iiiiffffff'
thread block = 42,2,0
GPGPU-Sim uArch: Shader 442 bind to kernel 1 '_Z14calculate_tempiPfS_S_iiiiffffff'
thread block = 43,2,0
GPGPU-Sim uArch: Shader 450 bind to kernel 1 '_Z14calculate_tempiPfS_S_iiiiffffff'
thread block = 44,2,0
GPGPU-Sim uArch: Shader 458 bind to kernel 1 '_Z14calculate_tempiPfS_S_iiiiffffff'
thread block = 45,2,0
GPGPU-Sim uArch: Shader 466 bind to kernel 1 '_Z14calculate_tempiPfS_S_iiiiffffff'
thread block = 46,2,0
GPGPU-Sim uArch: Shader 474 bind to kernel 1 '_Z14calculate_tempiPfS_S_iiiiffffff'
thread block = 47,2,0
GPGPU-Sim uArch: Shader 482 bind to kernel 1 '_Z14calculate_tempiPfS_S_iiiiffffff'
thread block = 48,2,0
GPGPU-Sim uArch: Shader 490 bind to kernel 1 '_Z14calculate_tempiPfS_S_iiiiffffff'
thread block = 49,2,0
GPGPU-Sim uArch: Shader 498 bind to kernel 1 '_Z14calculate_tempiPfS_S_iiiiffffff'
thread block = 50,2,0
GPGPU-Sim uArch: Shader 506 bind to kernel 1 '_Z14calculate_tempiPfS_S_iiiiffffff'
thread block = 51,2,0
GPGPU-Sim uArch: Shader 514 bind to kernel 1 '_Z14calculate_tempiPfS_S_iiiiffffff'
thread block = 52,2,0
GPGPU-Sim uArch: Shader 522 bind to kernel 1 '_Z14calculate_tempiPfS_S_iiiiffffff'
thread block = 53,2,0
GPGPU-Sim uArch: Shader 530 bind to kernel 1 '_Z14calculate_tempiPfS_S_iiiiffffff'
thread block = 54,2,0
GPGPU-Sim uArch: Shader 538 bind to kernel 1 '_Z14calculate_tempiPfS_S_iiiiffffff'
thread block = 55,2,0
GPGPU-Sim uArch: Shader 546 bind to kernel 1 '_Z14calculate_tempiPfS_S_iiiiffffff'
thread block = 56,2,0
GPGPU-Sim uArch: Shader 554 bind to kernel 1 '_Z14calculate_tempiPfS_S_iiiiffffff'
thread block = 57,2,0
GPGPU-Sim uArch: Shader 562 bind to kernel 1 '_Z14calculate_tempiPfS_S_iiiiffffff'
thread block = 58,2,0
GPGPU-Sim uArch: Shader 570 bind to kernel 1 '_Z14calculate_tempiPfS_S_iiiiffffff'
thread block = 59,2,0
GPGPU-Sim uArch: Shader 578 bind to kernel 1 '_Z14calculate_tempiPfS_S_iiiiffffff'
thread block = 60,2,0
GPGPU-Sim uArch: Shader 586 bind to kernel 1 '_Z14calculate_tempiPfS_S_iiiiffffff'
thread block = 61,2,0
GPGPU-Sim uArch: Shader 594 bind to kernel 1 '_Z14calculate_tempiPfS_S_iiiiffffff'
thread block = 62,2,0
GPGPU-Sim uArch: Shader 602 bind to kernel 1 '_Z14calculate_tempiPfS_S_iiiiffffff'
thread block = 63,2,0
GPGPU-Sim uArch: Shader 610 bind to kernel 1 '_Z14calculate_tempiPfS_S_iiiiffffff'
thread block = 64,2,0
GPGPU-Sim uArch: Shader 618 bind to kernel 1 '_Z14calculate_tempiPfS_S_iiiiffffff'
thread block = 65,2,0
GPGPU-Sim uArch: Shader 626 bind to kernel 1 '_Z14calculate_tempiPfS_S_iiiiffffff'
thread block = 66,2,0
GPGPU-Sim uArch: Shader 634 bind to kernel 1 '_Z14calculate_tempiPfS_S_iiiiffffff'
thread block = 67,2,0
GPGPU-Sim uArch: Shader 3 bind to kernel 1 '_Z14calculate_tempiPfS_S_iiiiffffff'
thread block = 68,2,0
GPGPU-Sim uArch: Shader 11 bind to kernel 1 '_Z14calculate_tempiPfS_S_iiiiffffff'
thread block = 69,2,0
GPGPU-Sim uArch: Shader 19 bind to kernel 1 '_Z14calculate_tempiPfS_S_iiiiffffff'
thread block = 70,2,0
GPGPU-Sim uArch: Shader 27 bind to kernel 1 '_Z14calculate_tempiPfS_S_iiiiffffff'
thread block = 71,2,0
GPGPU-Sim uArch: Shader 35 bind to kernel 1 '_Z14calculate_tempiPfS_S_iiiiffffff'
thread block = 72,2,0
GPGPU-Sim uArch: Shader 43 bind to kernel 1 '_Z14calculate_tempiPfS_S_iiiiffffff'
thread block = 73,2,0
GPGPU-Sim uArch: Shader 51 bind to kernel 1 '_Z14calculate_tempiPfS_S_iiiiffffff'
thread block = 74,2,0
GPGPU-Sim uArch: Shader 59 bind to kernel 1 '_Z14calculate_tempiPfS_S_iiiiffffff'
thread block = 75,2,0
GPGPU-Sim uArch: Shader 67 bind to kernel 1 '_Z14calculate_tempiPfS_S_iiiiffffff'
thread block = 76,2,0
GPGPU-Sim uArch: Shader 75 bind to kernel 1 '_Z14calculate_tempiPfS_S_iiiiffffff'
thread block = 77,2,0
GPGPU-Sim uArch: Shader 83 bind to kernel 1 '_Z14calculate_tempiPfS_S_iiiiffffff'
thread block = 78,2,0
GPGPU-Sim uArch: Shader 91 bind to kernel 1 '_Z14calculate_tempiPfS_S_iiiiffffff'
thread block = 79,2,0
GPGPU-Sim uArch: Shader 99 bind to kernel 1 '_Z14calculate_tempiPfS_S_iiiiffffff'
thread block = 80,2,0
GPGPU-Sim uArch: Shader 107 bind to kernel 1 '_Z14calculate_tempiPfS_S_iiiiffffff'
thread block = 81,2,0
GPGPU-Sim uArch: Shader 115 bind to kernel 1 '_Z14calculate_tempiPfS_S_iiiiffffff'
thread block = 82,2,0
GPGPU-Sim uArch: Shader 123 bind to kernel 1 '_Z14calculate_tempiPfS_S_iiiiffffff'
thread block = 83,2,0
GPGPU-Sim uArch: Shader 131 bind to kernel 1 '_Z14calculate_tempiPfS_S_iiiiffffff'
thread block = 84,2,0
GPGPU-Sim uArch: Shader 139 bind to kernel 1 '_Z14calculate_tempiPfS_S_iiiiffffff'
thread block = 85,2,0
GPGPU-Sim uArch: Shader 147 bind to kernel 1 '_Z14calculate_tempiPfS_S_iiiiffffff'
thread block = 0,3,0
GPGPU-Sim uArch: Shader 155 bind to kernel 1 '_Z14calculate_tempiPfS_S_iiiiffffff'
thread block = 1,3,0
GPGPU-Sim uArch: Shader 163 bind to kernel 1 '_Z14calculate_tempiPfS_S_iiiiffffff'
thread block = 2,3,0
GPGPU-Sim uArch: Shader 171 bind to kernel 1 '_Z14calculate_tempiPfS_S_iiiiffffff'
thread block = 3,3,0
GPGPU-Sim uArch: Shader 179 bind to kernel 1 '_Z14calculate_tempiPfS_S_iiiiffffff'
thread block = 4,3,0
GPGPU-Sim uArch: Shader 187 bind to kernel 1 '_Z14calculate_tempiPfS_S_iiiiffffff'
thread block = 5,3,0
GPGPU-Sim uArch: Shader 195 bind to kernel 1 '_Z14calculate_tempiPfS_S_iiiiffffff'
thread block = 6,3,0
GPGPU-Sim uArch: Shader 203 bind to kernel 1 '_Z14calculate_tempiPfS_S_iiiiffffff'
thread block = 7,3,0
GPGPU-Sim uArch: Shader 211 bind to kernel 1 '_Z14calculate_tempiPfS_S_iiiiffffff'
thread block = 8,3,0
GPGPU-Sim uArch: Shader 219 bind to kernel 1 '_Z14calculate_tempiPfS_S_iiiiffffff'
thread block = 9,3,0
GPGPU-Sim uArch: Shader 227 bind to kernel 1 '_Z14calculate_tempiPfS_S_iiiiffffff'
thread block = 10,3,0
GPGPU-Sim uArch: Shader 235 bind to kernel 1 '_Z14calculate_tempiPfS_S_iiiiffffff'
thread block = 11,3,0
GPGPU-Sim uArch: Shader 243 bind to kernel 1 '_Z14calculate_tempiPfS_S_iiiiffffff'
thread block = 12,3,0
GPGPU-Sim uArch: Shader 251 bind to kernel 1 '_Z14calculate_tempiPfS_S_iiiiffffff'
thread block = 13,3,0
GPGPU-Sim uArch: Shader 259 bind to kernel 1 '_Z14calculate_tempiPfS_S_iiiiffffff'
thread block = 14,3,0
GPGPU-Sim uArch: Shader 267 bind to kernel 1 '_Z14calculate_tempiPfS_S_iiiiffffff'
thread block = 15,3,0
GPGPU-Sim uArch: Shader 275 bind to kernel 1 '_Z14calculate_tempiPfS_S_iiiiffffff'
thread block = 16,3,0
GPGPU-Sim uArch: Shader 283 bind to kernel 1 '_Z14calculate_tempiPfS_S_iiiiffffff'
thread block = 17,3,0
GPGPU-Sim uArch: Shader 291 bind to kernel 1 '_Z14calculate_tempiPfS_S_iiiiffffff'
thread block = 18,3,0
GPGPU-Sim uArch: Shader 299 bind to kernel 1 '_Z14calculate_tempiPfS_S_iiiiffffff'
thread block = 19,3,0
GPGPU-Sim uArch: Shader 307 bind to kernel 1 '_Z14calculate_tempiPfS_S_iiiiffffff'
thread block = 20,3,0
GPGPU-Sim uArch: Shader 315 bind to kernel 1 '_Z14calculate_tempiPfS_S_iiiiffffff'
thread block = 21,3,0
GPGPU-Sim uArch: Shader 323 bind to kernel 1 '_Z14calculate_tempiPfS_S_iiiiffffff'
thread block = 22,3,0
GPGPU-Sim uArch: Shader 331 bind to kernel 1 '_Z14calculate_tempiPfS_S_iiiiffffff'
thread block = 23,3,0
GPGPU-Sim uArch: Shader 339 bind to kernel 1 '_Z14calculate_tempiPfS_S_iiiiffffff'
thread block = 24,3,0
GPGPU-Sim uArch: Shader 347 bind to kernel 1 '_Z14calculate_tempiPfS_S_iiiiffffff'
thread block = 25,3,0
GPGPU-Sim uArch: Shader 355 bind to kernel 1 '_Z14calculate_tempiPfS_S_iiiiffffff'
thread block = 26,3,0
GPGPU-Sim uArch: Shader 363 bind to kernel 1 '_Z14calculate_tempiPfS_S_iiiiffffff'
thread block = 27,3,0
GPGPU-Sim uArch: Shader 371 bind to kernel 1 '_Z14calculate_tempiPfS_S_iiiiffffff'
thread block = 28,3,0
GPGPU-Sim uArch: Shader 379 bind to kernel 1 '_Z14calculate_tempiPfS_S_iiiiffffff'
thread block = 29,3,0
GPGPU-Sim uArch: Shader 387 bind to kernel 1 '_Z14calculate_tempiPfS_S_iiiiffffff'
thread block = 30,3,0
GPGPU-Sim uArch: Shader 395 bind to kernel 1 '_Z14calculate_tempiPfS_S_iiiiffffff'
thread block = 31,3,0
GPGPU-Sim uArch: Shader 403 bind to kernel 1 '_Z14calculate_tempiPfS_S_iiiiffffff'
thread block = 32,3,0
GPGPU-Sim uArch: Shader 411 bind to kernel 1 '_Z14calculate_tempiPfS_S_iiiiffffff'
thread block = 33,3,0
GPGPU-Sim uArch: Shader 419 bind to kernel 1 '_Z14calculate_tempiPfS_S_iiiiffffff'
thread block = 34,3,0
GPGPU-Sim uArch: Shader 427 bind to kernel 1 '_Z14calculate_tempiPfS_S_iiiiffffff'
thread block = 35,3,0
GPGPU-Sim uArch: Shader 435 bind to kernel 1 '_Z14calculate_tempiPfS_S_iiiiffffff'
thread block = 36,3,0
GPGPU-Sim uArch: Shader 443 bind to kernel 1 '_Z14calculate_tempiPfS_S_iiiiffffff'
thread block = 37,3,0
GPGPU-Sim uArch: Shader 451 bind to kernel 1 '_Z14calculate_tempiPfS_S_iiiiffffff'
thread block = 38,3,0
GPGPU-Sim uArch: Shader 459 bind to kernel 1 '_Z14calculate_tempiPfS_S_iiiiffffff'
thread block = 39,3,0
GPGPU-Sim uArch: Shader 467 bind to kernel 1 '_Z14calculate_tempiPfS_S_iiiiffffff'
thread block = 40,3,0
GPGPU-Sim uArch: Shader 475 bind to kernel 1 '_Z14calculate_tempiPfS_S_iiiiffffff'
thread block = 41,3,0
GPGPU-Sim uArch: Shader 483 bind to kernel 1 '_Z14calculate_tempiPfS_S_iiiiffffff'
thread block = 42,3,0
GPGPU-Sim uArch: Shader 491 bind to kernel 1 '_Z14calculate_tempiPfS_S_iiiiffffff'
thread block = 43,3,0
GPGPU-Sim uArch: Shader 499 bind to kernel 1 '_Z14calculate_tempiPfS_S_iiiiffffff'
thread block = 44,3,0
GPGPU-Sim uArch: Shader 507 bind to kernel 1 '_Z14calculate_tempiPfS_S_iiiiffffff'
thread block = 45,3,0
GPGPU-Sim uArch: Shader 515 bind to kernel 1 '_Z14calculate_tempiPfS_S_iiiiffffff'
thread block = 46,3,0
GPGPU-Sim uArch: Shader 523 bind to kernel 1 '_Z14calculate_tempiPfS_S_iiiiffffff'
thread block = 47,3,0
GPGPU-Sim uArch: Shader 531 bind to kernel 1 '_Z14calculate_tempiPfS_S_iiiiffffff'
thread block = 48,3,0
GPGPU-Sim uArch: Shader 539 bind to kernel 1 '_Z14calculate_tempiPfS_S_iiiiffffff'
thread block = 49,3,0
GPGPU-Sim uArch: Shader 547 bind to kernel 1 '_Z14calculate_tempiPfS_S_iiiiffffff'
thread block = 50,3,0
GPGPU-Sim uArch: Shader 555 bind to kernel 1 '_Z14calculate_tempiPfS_S_iiiiffffff'
thread block = 51,3,0
GPGPU-Sim uArch: Shader 563 bind to kernel 1 '_Z14calculate_tempiPfS_S_iiiiffffff'
thread block = 52,3,0
GPGPU-Sim uArch: Shader 571 bind to kernel 1 '_Z14calculate_tempiPfS_S_iiiiffffff'
thread block = 53,3,0
GPGPU-Sim uArch: Shader 579 bind to kernel 1 '_Z14calculate_tempiPfS_S_iiiiffffff'
thread block = 54,3,0
GPGPU-Sim uArch: Shader 587 bind to kernel 1 '_Z14calculate_tempiPfS_S_iiiiffffff'
thread block = 55,3,0
GPGPU-Sim uArch: Shader 595 bind to kernel 1 '_Z14calculate_tempiPfS_S_iiiiffffff'
thread block = 56,3,0
GPGPU-Sim uArch: Shader 603 bind to kernel 1 '_Z14calculate_tempiPfS_S_iiiiffffff'
thread block = 57,3,0
GPGPU-Sim uArch: Shader 611 bind to kernel 1 '_Z14calculate_tempiPfS_S_iiiiffffff'
thread block = 58,3,0
GPGPU-Sim uArch: Shader 619 bind to kernel 1 '_Z14calculate_tempiPfS_S_iiiiffffff'
thread block = 59,3,0
GPGPU-Sim uArch: Shader 627 bind to kernel 1 '_Z14calculate_tempiPfS_S_iiiiffffff'
thread block = 60,3,0
GPGPU-Sim uArch: Shader 635 bind to kernel 1 '_Z14calculate_tempiPfS_S_iiiiffffff'
thread block = 61,3,0
GPGPU-Sim uArch: Shader 4 bind to kernel 1 '_Z14calculate_tempiPfS_S_iiiiffffff'
thread block = 62,3,0
GPGPU-Sim uArch: Shader 12 bind to kernel 1 '_Z14calculate_tempiPfS_S_iiiiffffff'
thread block = 63,3,0
GPGPU-Sim uArch: Shader 20 bind to kernel 1 '_Z14calculate_tempiPfS_S_iiiiffffff'
thread block = 64,3,0
GPGPU-Sim uArch: Shader 28 bind to kernel 1 '_Z14calculate_tempiPfS_S_iiiiffffff'
thread block = 65,3,0
GPGPU-Sim uArch: Shader 36 bind to kernel 1 '_Z14calculate_tempiPfS_S_iiiiffffff'
thread block = 66,3,0
GPGPU-Sim uArch: Shader 44 bind to kernel 1 '_Z14calculate_tempiPfS_S_iiiiffffff'
thread block = 67,3,0
GPGPU-Sim uArch: Shader 52 bind to kernel 1 '_Z14calculate_tempiPfS_S_iiiiffffff'
thread block = 68,3,0
GPGPU-Sim uArch: Shader 60 bind to kernel 1 '_Z14calculate_tempiPfS_S_iiiiffffff'
thread block = 69,3,0
GPGPU-Sim uArch: Shader 68 bind to kernel 1 '_Z14calculate_tempiPfS_S_iiiiffffff'
thread block = 70,3,0
GPGPU-Sim uArch: Shader 76 bind to kernel 1 '_Z14calculate_tempiPfS_S_iiiiffffff'
thread block = 71,3,0
GPGPU-Sim uArch: Shader 84 bind to kernel 1 '_Z14calculate_tempiPfS_S_iiiiffffff'
thread block = 72,3,0
GPGPU-Sim uArch: Shader 92 bind to kernel 1 '_Z14calculate_tempiPfS_S_iiiiffffff'
thread block = 73,3,0
GPGPU-Sim uArch: Shader 100 bind to kernel 1 '_Z14calculate_tempiPfS_S_iiiiffffff'
thread block = 74,3,0
GPGPU-Sim uArch: Shader 108 bind to kernel 1 '_Z14calculate_tempiPfS_S_iiiiffffff'
thread block = 75,3,0
GPGPU-Sim uArch: Shader 116 bind to kernel 1 '_Z14calculate_tempiPfS_S_iiiiffffff'
thread block = 76,3,0
GPGPU-Sim uArch: Shader 124 bind to kernel 1 '_Z14calculate_tempiPfS_S_iiiiffffff'
thread block = 77,3,0
GPGPU-Sim uArch: Shader 132 bind to kernel 1 '_Z14calculate_tempiPfS_S_iiiiffffff'
thread block = 78,3,0
GPGPU-Sim uArch: Shader 140 bind to kernel 1 '_Z14calculate_tempiPfS_S_iiiiffffff'
thread block = 79,3,0
GPGPU-Sim uArch: Shader 148 bind to kernel 1 '_Z14calculate_tempiPfS_S_iiiiffffff'
thread block = 80,3,0
GPGPU-Sim uArch: Shader 156 bind to kernel 1 '_Z14calculate_tempiPfS_S_iiiiffffff'
thread block = 81,3,0
GPGPU-Sim uArch: Shader 164 bind to kernel 1 '_Z14calculate_tempiPfS_S_iiiiffffff'
thread block = 82,3,0
GPGPU-Sim uArch: Shader 172 bind to kernel 1 '_Z14calculate_tempiPfS_S_iiiiffffff'
thread block = 83,3,0
GPGPU-Sim uArch: Shader 180 bind to kernel 1 '_Z14calculate_tempiPfS_S_iiiiffffff'
thread block = 84,3,0
GPGPU-Sim uArch: Shader 188 bind to kernel 1 '_Z14calculate_tempiPfS_S_iiiiffffff'
thread block = 85,3,0
GPGPU-Sim uArch: Shader 196 bind to kernel 1 '_Z14calculate_tempiPfS_S_iiiiffffff'
thread block = 0,4,0
GPGPU-Sim uArch: Shader 204 bind to kernel 1 '_Z14calculate_tempiPfS_S_iiiiffffff'
thread block = 1,4,0
GPGPU-Sim uArch: Shader 212 bind to kernel 1 '_Z14calculate_tempiPfS_S_iiiiffffff'
thread block = 2,4,0
GPGPU-Sim uArch: Shader 220 bind to kernel 1 '_Z14calculate_tempiPfS_S_iiiiffffff'
thread block = 3,4,0
GPGPU-Sim uArch: Shader 228 bind to kernel 1 '_Z14calculate_tempiPfS_S_iiiiffffff'
thread block = 4,4,0
GPGPU-Sim uArch: Shader 236 bind to kernel 1 '_Z14calculate_tempiPfS_S_iiiiffffff'
thread block = 5,4,0
GPGPU-Sim uArch: Shader 244 bind to kernel 1 '_Z14calculate_tempiPfS_S_iiiiffffff'
thread block = 6,4,0
GPGPU-Sim uArch: Shader 252 bind to kernel 1 '_Z14calculate_tempiPfS_S_iiiiffffff'
thread block = 7,4,0
GPGPU-Sim uArch: Shader 260 bind to kernel 1 '_Z14calculate_tempiPfS_S_iiiiffffff'
thread block = 8,4,0
GPGPU-Sim uArch: Shader 268 bind to kernel 1 '_Z14calculate_tempiPfS_S_iiiiffffff'
thread block = 9,4,0
GPGPU-Sim uArch: Shader 276 bind to kernel 1 '_Z14calculate_tempiPfS_S_iiiiffffff'
thread block = 10,4,0
GPGPU-Sim uArch: Shader 284 bind to kernel 1 '_Z14calculate_tempiPfS_S_iiiiffffff'
thread block = 11,4,0
GPGPU-Sim uArch: Shader 292 bind to kernel 1 '_Z14calculate_tempiPfS_S_iiiiffffff'
thread block = 12,4,0
GPGPU-Sim uArch: Shader 300 bind to kernel 1 '_Z14calculate_tempiPfS_S_iiiiffffff'
thread block = 13,4,0
GPGPU-Sim uArch: Shader 308 bind to kernel 1 '_Z14calculate_tempiPfS_S_iiiiffffff'
thread block = 14,4,0
GPGPU-Sim uArch: Shader 316 bind to kernel 1 '_Z14calculate_tempiPfS_S_iiiiffffff'
thread block = 15,4,0
GPGPU-Sim uArch: Shader 324 bind to kernel 1 '_Z14calculate_tempiPfS_S_iiiiffffff'
thread block = 16,4,0
GPGPU-Sim uArch: Shader 332 bind to kernel 1 '_Z14calculate_tempiPfS_S_iiiiffffff'
thread block = 17,4,0
GPGPU-Sim uArch: Shader 340 bind to kernel 1 '_Z14calculate_tempiPfS_S_iiiiffffff'
thread block = 18,4,0
GPGPU-Sim uArch: Shader 348 bind to kernel 1 '_Z14calculate_tempiPfS_S_iiiiffffff'
thread block = 19,4,0
GPGPU-Sim uArch: Shader 356 bind to kernel 1 '_Z14calculate_tempiPfS_S_iiiiffffff'
thread block = 20,4,0
GPGPU-Sim uArch: Shader 364 bind to kernel 1 '_Z14calculate_tempiPfS_S_iiiiffffff'
thread block = 21,4,0
GPGPU-Sim uArch: Shader 372 bind to kernel 1 '_Z14calculate_tempiPfS_S_iiiiffffff'
thread block = 22,4,0
GPGPU-Sim uArch: Shader 380 bind to kernel 1 '_Z14calculate_tempiPfS_S_iiiiffffff'
thread block = 23,4,0
GPGPU-Sim uArch: Shader 388 bind to kernel 1 '_Z14calculate_tempiPfS_S_iiiiffffff'
thread block = 24,4,0
GPGPU-Sim uArch: Shader 396 bind to kernel 1 '_Z14calculate_tempiPfS_S_iiiiffffff'
thread block = 25,4,0
GPGPU-Sim uArch: Shader 404 bind to kernel 1 '_Z14calculate_tempiPfS_S_iiiiffffff'
thread block = 26,4,0
GPGPU-Sim uArch: Shader 412 bind to kernel 1 '_Z14calculate_tempiPfS_S_iiiiffffff'
thread block = 27,4,0
GPGPU-Sim uArch: Shader 420 bind to kernel 1 '_Z14calculate_tempiPfS_S_iiiiffffff'
thread block = 28,4,0
GPGPU-Sim uArch: Shader 428 bind to kernel 1 '_Z14calculate_tempiPfS_S_iiiiffffff'
thread block = 29,4,0
GPGPU-Sim uArch: Shader 436 bind to kernel 1 '_Z14calculate_tempiPfS_S_iiiiffffff'
thread block = 30,4,0
GPGPU-Sim uArch: Shader 444 bind to kernel 1 '_Z14calculate_tempiPfS_S_iiiiffffff'
thread block = 31,4,0
GPGPU-Sim uArch: Shader 452 bind to kernel 1 '_Z14calculate_tempiPfS_S_iiiiffffff'
thread block = 32,4,0
GPGPU-Sim uArch: Shader 460 bind to kernel 1 '_Z14calculate_tempiPfS_S_iiiiffffff'
thread block = 33,4,0
GPGPU-Sim uArch: Shader 468 bind to kernel 1 '_Z14calculate_tempiPfS_S_iiiiffffff'
thread block = 34,4,0
GPGPU-Sim uArch: Shader 476 bind to kernel 1 '_Z14calculate_tempiPfS_S_iiiiffffff'
thread block = 35,4,0
GPGPU-Sim uArch: Shader 484 bind to kernel 1 '_Z14calculate_tempiPfS_S_iiiiffffff'
thread block = 36,4,0
GPGPU-Sim uArch: Shader 492 bind to kernel 1 '_Z14calculate_tempiPfS_S_iiiiffffff'
thread block = 37,4,0
GPGPU-Sim uArch: Shader 500 bind to kernel 1 '_Z14calculate_tempiPfS_S_iiiiffffff'
thread block = 38,4,0
GPGPU-Sim uArch: Shader 508 bind to kernel 1 '_Z14calculate_tempiPfS_S_iiiiffffff'
thread block = 39,4,0
GPGPU-Sim uArch: Shader 516 bind to kernel 1 '_Z14calculate_tempiPfS_S_iiiiffffff'
thread block = 40,4,0
GPGPU-Sim uArch: Shader 524 bind to kernel 1 '_Z14calculate_tempiPfS_S_iiiiffffff'
thread block = 41,4,0
GPGPU-Sim uArch: Shader 532 bind to kernel 1 '_Z14calculate_tempiPfS_S_iiiiffffff'
thread block = 42,4,0
GPGPU-Sim uArch: Shader 540 bind to kernel 1 '_Z14calculate_tempiPfS_S_iiiiffffff'
thread block = 43,4,0
GPGPU-Sim uArch: Shader 548 bind to kernel 1 '_Z14calculate_tempiPfS_S_iiiiffffff'
thread block = 44,4,0
GPGPU-Sim uArch: Shader 556 bind to kernel 1 '_Z14calculate_tempiPfS_S_iiiiffffff'
thread block = 45,4,0
GPGPU-Sim uArch: Shader 564 bind to kernel 1 '_Z14calculate_tempiPfS_S_iiiiffffff'
thread block = 46,4,0
GPGPU-Sim uArch: Shader 572 bind to kernel 1 '_Z14calculate_tempiPfS_S_iiiiffffff'
thread block = 47,4,0
GPGPU-Sim uArch: Shader 580 bind to kernel 1 '_Z14calculate_tempiPfS_S_iiiiffffff'
thread block = 48,4,0
GPGPU-Sim uArch: Shader 588 bind to kernel 1 '_Z14calculate_tempiPfS_S_iiiiffffff'
thread block = 49,4,0
GPGPU-Sim uArch: Shader 596 bind to kernel 1 '_Z14calculate_tempiPfS_S_iiiiffffff'
thread block = 50,4,0
GPGPU-Sim uArch: Shader 604 bind to kernel 1 '_Z14calculate_tempiPfS_S_iiiiffffff'
thread block = 51,4,0
GPGPU-Sim uArch: Shader 612 bind to kernel 1 '_Z14calculate_tempiPfS_S_iiiiffffff'
thread block = 52,4,0
GPGPU-Sim uArch: Shader 620 bind to kernel 1 '_Z14calculate_tempiPfS_S_iiiiffffff'
thread block = 53,4,0
GPGPU-Sim uArch: Shader 628 bind to kernel 1 '_Z14calculate_tempiPfS_S_iiiiffffff'
thread block = 54,4,0
GPGPU-Sim uArch: Shader 636 bind to kernel 1 '_Z14calculate_tempiPfS_S_iiiiffffff'
thread block = 55,4,0
GPGPU-Sim uArch: Shader 5 bind to kernel 1 '_Z14calculate_tempiPfS_S_iiiiffffff'
thread block = 56,4,0
GPGPU-Sim uArch: Shader 13 bind to kernel 1 '_Z14calculate_tempiPfS_S_iiiiffffff'
thread block = 57,4,0
GPGPU-Sim uArch: Shader 21 bind to kernel 1 '_Z14calculate_tempiPfS_S_iiiiffffff'
thread block = 58,4,0
GPGPU-Sim uArch: Shader 29 bind to kernel 1 '_Z14calculate_tempiPfS_S_iiiiffffff'
thread block = 59,4,0
GPGPU-Sim uArch: Shader 37 bind to kernel 1 '_Z14calculate_tempiPfS_S_iiiiffffff'
thread block = 60,4,0
GPGPU-Sim uArch: Shader 45 bind to kernel 1 '_Z14calculate_tempiPfS_S_iiiiffffff'
thread block = 61,4,0
GPGPU-Sim uArch: Shader 53 bind to kernel 1 '_Z14calculate_tempiPfS_S_iiiiffffff'
thread block = 62,4,0
GPGPU-Sim uArch: Shader 61 bind to kernel 1 '_Z14calculate_tempiPfS_S_iiiiffffff'
thread block = 63,4,0
GPGPU-Sim uArch: Shader 69 bind to kernel 1 '_Z14calculate_tempiPfS_S_iiiiffffff'
thread block = 64,4,0
GPGPU-Sim uArch: Shader 77 bind to kernel 1 '_Z14calculate_tempiPfS_S_iiiiffffff'
thread block = 65,4,0
GPGPU-Sim uArch: Shader 85 bind to kernel 1 '_Z14calculate_tempiPfS_S_iiiiffffff'
thread block = 66,4,0
GPGPU-Sim uArch: Shader 93 bind to kernel 1 '_Z14calculate_tempiPfS_S_iiiiffffff'
thread block = 67,4,0
GPGPU-Sim uArch: Shader 101 bind to kernel 1 '_Z14calculate_tempiPfS_S_iiiiffffff'
thread block = 68,4,0
GPGPU-Sim uArch: Shader 109 bind to kernel 1 '_Z14calculate_tempiPfS_S_iiiiffffff'
thread block = 69,4,0
GPGPU-Sim uArch: Shader 117 bind to kernel 1 '_Z14calculate_tempiPfS_S_iiiiffffff'
thread block = 70,4,0
GPGPU-Sim uArch: Shader 125 bind to kernel 1 '_Z14calculate_tempiPfS_S_iiiiffffff'
thread block = 71,4,0
GPGPU-Sim uArch: Shader 133 bind to kernel 1 '_Z14calculate_tempiPfS_S_iiiiffffff'
thread block = 72,4,0
GPGPU-Sim uArch: Shader 141 bind to kernel 1 '_Z14calculate_tempiPfS_S_iiiiffffff'
thread block = 73,4,0
GPGPU-Sim uArch: Shader 149 bind to kernel 1 '_Z14calculate_tempiPfS_S_iiiiffffff'
thread block = 74,4,0
GPGPU-Sim uArch: Shader 157 bind to kernel 1 '_Z14calculate_tempiPfS_S_iiiiffffff'
thread block = 75,4,0
GPGPU-Sim uArch: Shader 165 bind to kernel 1 '_Z14calculate_tempiPfS_S_iiiiffffff'
thread block = 76,4,0
GPGPU-Sim uArch: Shader 173 bind to kernel 1 '_Z14calculate_tempiPfS_S_iiiiffffff'
thread block = 77,4,0
GPGPU-Sim uArch: Shader 181 bind to kernel 1 '_Z14calculate_tempiPfS_S_iiiiffffff'
thread block = 78,4,0
GPGPU-Sim uArch: Shader 189 bind to kernel 1 '_Z14calculate_tempiPfS_S_iiiiffffff'
thread block = 79,4,0
GPGPU-Sim uArch: Shader 197 bind to kernel 1 '_Z14calculate_tempiPfS_S_iiiiffffff'
thread block = 80,4,0
GPGPU-Sim uArch: Shader 205 bind to kernel 1 '_Z14calculate_tempiPfS_S_iiiiffffff'
thread block = 81,4,0
GPGPU-Sim uArch: Shader 213 bind to kernel 1 '_Z14calculate_tempiPfS_S_iiiiffffff'
thread block = 82,4,0
GPGPU-Sim uArch: Shader 221 bind to kernel 1 '_Z14calculate_tempiPfS_S_iiiiffffff'
thread block = 83,4,0
GPGPU-Sim uArch: Shader 229 bind to kernel 1 '_Z14calculate_tempiPfS_S_iiiiffffff'
thread block = 84,4,0
GPGPU-Sim uArch: Shader 237 bind to kernel 1 '_Z14calculate_tempiPfS_S_iiiiffffff'
thread block = 85,4,0
GPGPU-Sim uArch: Shader 245 bind to kernel 1 '_Z14calculate_tempiPfS_S_iiiiffffff'
thread block = 0,5,0
GPGPU-Sim uArch: Shader 253 bind to kernel 1 '_Z14calculate_tempiPfS_S_iiiiffffff'
thread block = 1,5,0
GPGPU-Sim uArch: Shader 261 bind to kernel 1 '_Z14calculate_tempiPfS_S_iiiiffffff'
thread block = 2,5,0
GPGPU-Sim uArch: Shader 269 bind to kernel 1 '_Z14calculate_tempiPfS_S_iiiiffffff'
thread block = 3,5,0
GPGPU-Sim uArch: Shader 277 bind to kernel 1 '_Z14calculate_tempiPfS_S_iiiiffffff'
thread block = 4,5,0
GPGPU-Sim uArch: Shader 285 bind to kernel 1 '_Z14calculate_tempiPfS_S_iiiiffffff'
thread block = 5,5,0
GPGPU-Sim uArch: Shader 293 bind to kernel 1 '_Z14calculate_tempiPfS_S_iiiiffffff'
thread block = 6,5,0
GPGPU-Sim uArch: Shader 301 bind to kernel 1 '_Z14calculate_tempiPfS_S_iiiiffffff'
thread block = 7,5,0
GPGPU-Sim uArch: Shader 309 bind to kernel 1 '_Z14calculate_tempiPfS_S_iiiiffffff'
thread block = 8,5,0
GPGPU-Sim uArch: Shader 317 bind to kernel 1 '_Z14calculate_tempiPfS_S_iiiiffffff'
thread block = 9,5,0
GPGPU-Sim uArch: Shader 325 bind to kernel 1 '_Z14calculate_tempiPfS_S_iiiiffffff'
thread block = 10,5,0
GPGPU-Sim uArch: Shader 333 bind to kernel 1 '_Z14calculate_tempiPfS_S_iiiiffffff'
thread block = 11,5,0
GPGPU-Sim uArch: Shader 341 bind to kernel 1 '_Z14calculate_tempiPfS_S_iiiiffffff'
thread block = 12,5,0
GPGPU-Sim uArch: Shader 349 bind to kernel 1 '_Z14calculate_tempiPfS_S_iiiiffffff'
thread block = 13,5,0
GPGPU-Sim uArch: Shader 357 bind to kernel 1 '_Z14calculate_tempiPfS_S_iiiiffffff'
thread block = 14,5,0
GPGPU-Sim uArch: Shader 365 bind to kernel 1 '_Z14calculate_tempiPfS_S_iiiiffffff'
thread block = 15,5,0
GPGPU-Sim uArch: Shader 373 bind to kernel 1 '_Z14calculate_tempiPfS_S_iiiiffffff'
thread block = 16,5,0
GPGPU-Sim uArch: Shader 381 bind to kernel 1 '_Z14calculate_tempiPfS_S_iiiiffffff'
thread block = 17,5,0
GPGPU-Sim uArch: Shader 389 bind to kernel 1 '_Z14calculate_tempiPfS_S_iiiiffffff'
thread block = 18,5,0
GPGPU-Sim uArch: Shader 397 bind to kernel 1 '_Z14calculate_tempiPfS_S_iiiiffffff'
thread block = 19,5,0
GPGPU-Sim uArch: Shader 405 bind to kernel 1 '_Z14calculate_tempiPfS_S_iiiiffffff'
thread block = 20,5,0
GPGPU-Sim uArch: Shader 413 bind to kernel 1 '_Z14calculate_tempiPfS_S_iiiiffffff'
thread block = 21,5,0
GPGPU-Sim uArch: Shader 421 bind to kernel 1 '_Z14calculate_tempiPfS_S_iiiiffffff'
thread block = 22,5,0
GPGPU-Sim uArch: Shader 429 bind to kernel 1 '_Z14calculate_tempiPfS_S_iiiiffffff'
thread block = 23,5,0
GPGPU-Sim uArch: Shader 437 bind to kernel 1 '_Z14calculate_tempiPfS_S_iiiiffffff'
thread block = 24,5,0
GPGPU-Sim uArch: Shader 445 bind to kernel 1 '_Z14calculate_tempiPfS_S_iiiiffffff'
thread block = 25,5,0
GPGPU-Sim uArch: Shader 453 bind to kernel 1 '_Z14calculate_tempiPfS_S_iiiiffffff'
thread block = 26,5,0
GPGPU-Sim uArch: Shader 461 bind to kernel 1 '_Z14calculate_tempiPfS_S_iiiiffffff'
thread block = 27,5,0
GPGPU-Sim uArch: Shader 469 bind to kernel 1 '_Z14calculate_tempiPfS_S_iiiiffffff'
thread block = 28,5,0
GPGPU-Sim uArch: Shader 477 bind to kernel 1 '_Z14calculate_tempiPfS_S_iiiiffffff'
thread block = 29,5,0
GPGPU-Sim uArch: Shader 485 bind to kernel 1 '_Z14calculate_tempiPfS_S_iiiiffffff'
thread block = 30,5,0
GPGPU-Sim uArch: Shader 493 bind to kernel 1 '_Z14calculate_tempiPfS_S_iiiiffffff'
thread block = 31,5,0
GPGPU-Sim uArch: Shader 501 bind to kernel 1 '_Z14calculate_tempiPfS_S_iiiiffffff'
thread block = 32,5,0
GPGPU-Sim uArch: Shader 509 bind to kernel 1 '_Z14calculate_tempiPfS_S_iiiiffffff'
thread block = 33,5,0
GPGPU-Sim uArch: Shader 517 bind to kernel 1 '_Z14calculate_tempiPfS_S_iiiiffffff'
thread block = 34,5,0
GPGPU-Sim uArch: Shader 525 bind to kernel 1 '_Z14calculate_tempiPfS_S_iiiiffffff'
thread block = 35,5,0
GPGPU-Sim uArch: Shader 533 bind to kernel 1 '_Z14calculate_tempiPfS_S_iiiiffffff'
thread block = 36,5,0
GPGPU-Sim uArch: Shader 541 bind to kernel 1 '_Z14calculate_tempiPfS_S_iiiiffffff'
thread block = 37,5,0
GPGPU-Sim uArch: Shader 549 bind to kernel 1 '_Z14calculate_tempiPfS_S_iiiiffffff'
thread block = 38,5,0
GPGPU-Sim uArch: Shader 557 bind to kernel 1 '_Z14calculate_tempiPfS_S_iiiiffffff'
thread block = 39,5,0
GPGPU-Sim uArch: Shader 565 bind to kernel 1 '_Z14calculate_tempiPfS_S_iiiiffffff'
thread block = 40,5,0
GPGPU-Sim uArch: Shader 573 bind to kernel 1 '_Z14calculate_tempiPfS_S_iiiiffffff'
thread block = 41,5,0
GPGPU-Sim uArch: Shader 581 bind to kernel 1 '_Z14calculate_tempiPfS_S_iiiiffffff'
thread block = 42,5,0
GPGPU-Sim uArch: Shader 589 bind to kernel 1 '_Z14calculate_tempiPfS_S_iiiiffffff'
thread block = 43,5,0
GPGPU-Sim uArch: Shader 597 bind to kernel 1 '_Z14calculate_tempiPfS_S_iiiiffffff'
thread block = 44,5,0
GPGPU-Sim uArch: Shader 605 bind to kernel 1 '_Z14calculate_tempiPfS_S_iiiiffffff'
thread block = 45,5,0
GPGPU-Sim uArch: Shader 613 bind to kernel 1 '_Z14calculate_tempiPfS_S_iiiiffffff'
thread block = 46,5,0
GPGPU-Sim uArch: Shader 621 bind to kernel 1 '_Z14calculate_tempiPfS_S_iiiiffffff'
thread block = 47,5,0
GPGPU-Sim uArch: Shader 629 bind to kernel 1 '_Z14calculate_tempiPfS_S_iiiiffffff'
thread block = 48,5,0
GPGPU-Sim uArch: Shader 637 bind to kernel 1 '_Z14calculate_tempiPfS_S_iiiiffffff'
thread block = 49,5,0
GPGPU-Sim uArch: Shader 6 bind to kernel 1 '_Z14calculate_tempiPfS_S_iiiiffffff'
thread block = 50,5,0
GPGPU-Sim uArch: Shader 14 bind to kernel 1 '_Z14calculate_tempiPfS_S_iiiiffffff'
thread block = 51,5,0
GPGPU-Sim uArch: Shader 22 bind to kernel 1 '_Z14calculate_tempiPfS_S_iiiiffffff'
thread block = 52,5,0
GPGPU-Sim uArch: Shader 30 bind to kernel 1 '_Z14calculate_tempiPfS_S_iiiiffffff'
thread block = 53,5,0
GPGPU-Sim uArch: Shader 38 bind to kernel 1 '_Z14calculate_tempiPfS_S_iiiiffffff'
thread block = 54,5,0
GPGPU-Sim uArch: Shader 46 bind to kernel 1 '_Z14calculate_tempiPfS_S_iiiiffffff'
thread block = 55,5,0
GPGPU-Sim uArch: Shader 54 bind to kernel 1 '_Z14calculate_tempiPfS_S_iiiiffffff'
thread block = 56,5,0
GPGPU-Sim uArch: Shader 62 bind to kernel 1 '_Z14calculate_tempiPfS_S_iiiiffffff'
thread block = 57,5,0
GPGPU-Sim uArch: Shader 70 bind to kernel 1 '_Z14calculate_tempiPfS_S_iiiiffffff'
thread block = 58,5,0
GPGPU-Sim uArch: Shader 78 bind to kernel 1 '_Z14calculate_tempiPfS_S_iiiiffffff'
thread block = 59,5,0
GPGPU-Sim uArch: Shader 86 bind to kernel 1 '_Z14calculate_tempiPfS_S_iiiiffffff'
thread block = 60,5,0
GPGPU-Sim uArch: Shader 94 bind to kernel 1 '_Z14calculate_tempiPfS_S_iiiiffffff'
thread block = 61,5,0
GPGPU-Sim uArch: Shader 102 bind to kernel 1 '_Z14calculate_tempiPfS_S_iiiiffffff'
thread block = 62,5,0
GPGPU-Sim uArch: Shader 110 bind to kernel 1 '_Z14calculate_tempiPfS_S_iiiiffffff'
thread block = 63,5,0
GPGPU-Sim uArch: Shader 118 bind to kernel 1 '_Z14calculate_tempiPfS_S_iiiiffffff'
thread block = 64,5,0
GPGPU-Sim uArch: Shader 126 bind to kernel 1 '_Z14calculate_tempiPfS_S_iiiiffffff'
thread block = 65,5,0
GPGPU-Sim uArch: Shader 134 bind to kernel 1 '_Z14calculate_tempiPfS_S_iiiiffffff'
thread block = 66,5,0
GPGPU-Sim uArch: Shader 142 bind to kernel 1 '_Z14calculate_tempiPfS_S_iiiiffffff'
[...]
n_cmd=19579 n_nop=8586 n_act=2363 n_pre=2347 n_ref_event=0 n_req=8477 n_rd=8192 n_rd_L2_A=0 n_write=0 n_wr_bk=1140 bw_util=0.4766
n_activity=14047 dram_eff=0.6643
bk0: 512a 12897i bk1: 512a 13172i bk2: 512a 13845i bk3: 512a 14192i bk4: 512a 14024i bk5: 512a 14010i bk6: 512a 13229i bk7: 512a 12865i bk8: 512a 13723i bk9: 512a 14105i bk10: 512a 12727i bk11: 512a 12876i bk12: 512a 13198i bk13: 512a 13131i bk14: 512a 12859i bk15: 512a 13617i 

------------------------------------------------------------------------

Row_Buffer_Locality = 0.721246
Row_Buffer_Locality_read = 0.716431
Row_Buffer_Locality_write = 0.859649
Bank_Level_Parallism = 7.725675
Bank_Level_Parallism_Col = 3.933053
Bank_Level_Parallism_Ready = 1.825225
write_to_read_ratio_blp_rw_average = 0.089813
GrpLevelPara = 2.615163 

BW Util details:
bwutil = 0.476633 
total_CMD = 19579 
util_bw = 9332 
Wasted_Col = 4248 
Wasted_Row = 305 
Idle = 5694 

BW Util Bottlenecks: 
RCDc_limit = 9406 
RCDWRc_limit = 77 
WTRc_limit = 252 
RTWc_limit = 291 
CCDLc_limit = 3395 
rwq = 0 
CCDLc_limit_alone = 3343 
WTRc_limit_alone = 214 
RTWc_limit_alone = 277 

Commands details: 
total_CMD = 19579 
n_nop = 8586 
Read = 8192 
Write = 0 
L2_Alloc = 0 
L2_WB = 1140 
n_act = 2363 
n_pre = 2347 
n_ref = 0 
n_req = 8477 
total_req = 9332 

Dual Bus Interface Util: 
issued_total_row = 4710 
issued_total_col = 9332 
Row_Bus_Util =  0.240564 
CoL_Bus_Util = 0.476633 
Either_Row_CoL_Bus_Util = 0.561469 
Issued_on_Two_Bus_Simul_Util = 0.155728 
issued_two_Eff = 0.277358 
queue_avg = 13.954849 


dram_util_bins: 0 0 0 0 0 0 0 0 0 0
dram_eff_bins: 0 0 0 0 0 0 0 0 0 0
mrqq: max=64 avg=13.9548
Memory Partition 29: 
Cache L2_bank_058:
MSHR contents

Cache L2_bank_059:
MSHR contents

In Dram Latency Queue (total = 0): 
DRAM[29]: 16 bks, busW=16 BL=2 CL=12, tRRD=3 tCCD=1, tRCD=12 tRAS=28 tRP=12 tRC=40
n_cmd=19579 n_nop=8597 n_act=2347 n_pre=2331 n_ref_event=0 n_req=8468 n_rd=8192 n_rd_L2_A=0 n_write=0 n_wr_bk=1104 bw_util=0.4748
n_activity=14001 dram_eff=0.664
bk0: 512a 13050i bk1: 512a 13017i bk2: 512a 13792i bk3: 512a 14366i bk4: 512a 14315i bk5: 512a 14151i bk6: 512a 13073i bk7: 512a 12856i bk8: 512a 13933i bk9: 512a 14064i bk10: 512a 13164i bk11: 512a 13207i bk12: 512a 13158i bk13: 512a 13466i bk14: 512a 12700i bk15: 512a 12923i 

------------------------------------------------------------------------

Row_Buffer_Locality = 0.722839
Row_Buffer_Locality_read = 0.719482
Row_Buffer_Locality_write = 0.822464
Bank_Level_Parallism = 7.677119
Bank_Level_Parallism_Col = 3.964275
Bank_Level_Parallism_Ready = 1.833692
write_to_read_ratio_blp_rw_average = 0.078106
GrpLevelPara = 2.637204 

BW Util details:
bwutil = 0.474794 
total_CMD = 19579 
util_bw = 9296 
Wasted_Col = 4273 
Wasted_Row = 303 
Idle = 5707 

BW Util Bottlenecks: 
RCDc_limit = 9449 
RCDWRc_limit = 128 
WTRc_limit = 344 
RTWc_limit = 147 
CCDLc_limit = 3350 
rwq = 0 
CCDLc_limit_alone = 3305 
WTRc_limit_alone = 307 
RTWc_limit_alone = 139 

Commands details: 
total_CMD = 19579 
n_nop = 8597 
Read = 8192 
Write = 0 
L2_Alloc = 0 
L2_WB = 1104 
n_act = 2347 
n_pre = 2331 
n_ref = 0 
n_req = 8468 
total_req = 9296 

Dual Bus Interface Util: 
issued_total_row = 4678 
issued_total_col = 9296 
Row_Bus_Util =  0.238929 
CoL_Bus_Util = 0.474794 
Either_Row_CoL_Bus_Util = 0.560907 
Issued_on_Two_Bus_Simul_Util = 0.152817 
issued_two_Eff = 0.272446 
queue_avg = 13.544665 


dram_util_bins: 0 0 0 0 0 0 0 0 0 0
dram_eff_bins: 0 0 0 0 0 0 0 0 0 0
mrqq: max=64 avg=13.5447
Memory Partition 30: 
Cache L2_bank_060:
MSHR contents

Cache L2_bank_061:
MSHR contents

In Dram Latency Queue (total = 0): 
DRAM[30]: 16 bks, busW=16 BL=2 CL=12, tRRD=3 tCCD=1, tRCD=12 tRAS=28 tRP=12 tRC=40
n_cmd=19579 n_nop=8610 n_act=2365 n_pre=2349 n_ref_event=0 n_req=8471 n_rd=8192 n_rd_L2_A=0 n_write=0 n_wr_bk=1116 bw_util=0.4754
n_activity=13980 dram_eff=0.6658
bk0: 512a 13364i bk1: 512a 13443i bk2: 512a 13640i bk3: 512a 14371i bk4: 512a 13185i bk5: 512a 13986i bk6: 512a 12719i bk7: 512a 13171i bk8: 512a 13856i bk9: 512a 14065i bk10: 512a 13318i bk11: 512a 12827i bk12: 512a 13018i bk13: 512a 13677i bk14: 512a 12148i bk15: 512a 13478i 

------------------------------------------------------------------------

Row_Buffer_Locality = 0.720812
Row_Buffer_Locality_read = 0.717773
Row_Buffer_Locality_write = 0.810036
Bank_Level_Parallism = 7.744956
Bank_Level_Parallism_Col = 3.961273
Bank_Level_Parallism_Ready = 1.820584
write_to_read_ratio_blp_rw_average = 0.088900
GrpLevelPara = 2.655167 

BW Util details:
bwutil = 0.475407 
total_CMD = 19579 
util_bw = 9308 
Wasted_Col = 4215 
Wasted_Row = 353 
Idle = 5703 

BW Util Bottlenecks: 
RCDc_limit = 9264 
RCDWRc_limit = 159 
WTRc_limit = 313 
RTWc_limit = 509 
CCDLc_limit = 3336 
rwq = 0 
CCDLc_limit_alone = 3301 
WTRc_limit_alone = 298 
RTWc_limit_alone = 489 

Commands details: 
total_CMD = 19579 
n_nop = 8610 
Read = 8192 
Write = 0 
L2_Alloc = 0 
L2_WB = 1116 
n_act = 2365 
n_pre = 2349 
n_ref = 0 
n_req = 8471 
total_req = 9308 

Dual Bus Interface Util: 
issued_total_row = 4714 
issued_total_col = 9308 
Row_Bus_Util =  0.240768 
CoL_Bus_Util = 0.475407 
Either_Row_CoL_Bus_Util = 0.560243 
Issued_on_Two_Bus_Simul_Util = 0.155932 
issued_two_Eff = 0.278330 
queue_avg = 14.140610 


dram_util_bins: 0 0 0 0 0 0 0 0 0 0
dram_eff_bins: 0 0 0 0 0 0 0 0 0 0
mrqq: max=64 avg=14.1406
Memory Partition 31: 
Cache L2_bank_062:
MSHR contents

Cache L2_bank_063:
MSHR contents

In Dram Latency Queue (total = 0): 
DRAM[31]: 16 bks, busW=16 BL=2 CL=12, tRRD=3 tCCD=1, tRCD=12 tRAS=28 tRP=12 tRC=40
n_cmd=19579 n_nop=8685 n_act=2305 n_pre=2289 n_ref_event=0 n_req=8471 n_rd=8192 n_rd_L2_A=0 n_write=0 n_wr_bk=1116 bw_util=0.4754
n_activity=13919 dram_eff=0.6687
bk0: 512a 13275i bk1: 512a 13600i bk2: 512a 13541i bk3: 512a 14157i bk4: 512a 13992i bk5: 512a 14026i bk6: 512a 13036i bk7: 512a 13146i bk8: 512a 14119i bk9: 512a 14356i bk10: 512a 13535i bk11: 512a 13470i bk12: 512a 13215i bk13: 512a 13704i bk14: 512a 13394i bk15: 512a 14177i 

------------------------------------------------------------------------

Row_Buffer_Locality = 0.727895
Row_Buffer_Locality_read = 0.723511
Row_Buffer_Locality_write = 0.856631
Bank_Level_Parallism = 7.472936
Bank_Level_Parallism_Col = 3.834832
Bank_Level_Parallism_Ready = 1.805221
write_to_read_ratio_blp_rw_average = 0.096670
GrpLevelPara = 2.596924 

BW Util details:
bwutil = 0.475407 
total_CMD = 19579 
util_bw = 9308 
Wasted_Col = 4193 
Wasted_Row = 281 
Idle = 5797 

BW Util Bottlenecks: 
RCDc_limit = 9097 
RCDWRc_limit = 75 
WTRc_limit = 214 
RTWc_limit = 317 
CCDLc_limit = 3333 
rwq = 0 
CCDLc_limit_alone = 3307 
WTRc_limit_alone = 200 
RTWc_limit_alone = 305 

Commands details: 
total_CMD = 19579 
n_nop = 8685 
Read = 8192 
Write = 0 
L2_Alloc = 0 
L2_WB = 1116 
n_act = 2305 
n_pre = 2289 
n_ref = 0 
n_req = 8471 
total_req = 9308 

Dual Bus Interface Util: 
issued_total_row = 4594 
issued_total_col = 9308 
Row_Bus_Util =  0.234639 
CoL_Bus_Util = 0.475407 
Either_Row_CoL_Bus_Util = 0.556412 
Issued_on_Two_Bus_Simul_Util = 0.153634 
issued_two_Eff = 0.276115 
queue_avg = 12.899127 


dram_util_bins: 0 0 0 0 0 0 0 0 0 0
dram_eff_bins: 0 0 0 0 0 0 0 0 0 0
mrqq: max=64 avg=12.8991

========= L2 cache stats =========
L2_cache_bank[0]: Access = 13662, Miss = 6832, Miss_rate = 0.500, Pending_hits = 1359, Reservation_fails = 0
L2_cache_bank[1]: Access = 13546, Miss = 6832, Miss_rate = 0.504, Pending_hits = 1305, Reservation_fails = 0
L2_cache_bank[2]: Access = 13662, Miss = 6832, Miss_rate = 0.500, Pending_hits = 1342, Reservation_fails = 0
L2_cache_bank[3]: Access = 13542, Miss = 6832, Miss_rate = 0.505, Pending_hits = 1326, Reservation_fails = 0
L2_cache_bank[4]: Access = 13664, Miss = 6832, Miss_rate = 0.500, Pending_hits = 1353, Reservation_fails = 0
L2_cache_bank[5]: Access = 13532, Miss = 6832, Miss_rate = 0.505, Pending_hits = 1314, Reservation_fails = 0
L2_cache_bank[6]: Access = 13670, Miss = 6832, Miss_rate = 0.500, Pending_hits = 1320, Reservation_fails = 0
L2_cache_bank[7]: Access = 13542, Miss = 6832, Miss_rate = 0.505, Pending_hits = 1325, Reservation_fails = 0
L2_cache_bank[8]: Access = 13668, Miss = 6832, Miss_rate = 0.500, Pending_hits = 1326, Reservation_fails = 0
L2_cache_bank[9]: Access = 13546, Miss = 6832, Miss_rate = 0.504, Pending_hits = 1274, Reservation_fails = 0
L2_cache_bank[10]: Access = 13660, Miss = 6832, Miss_rate = 0.500, Pending_hits = 1327, Reservation_fails = 0
L2_cache_bank[11]: Access = 13540, Miss = 6832, Miss_rate = 0.505, Pending_hits = 1288, Reservation_fails = 0
L2_cache_bank[12]: Access = 13670, Miss = 6832, Miss_rate = 0.500, Pending_hits = 1335, Reservation_fails = 0
L2_cache_bank[13]: Access = 13530, Miss = 6832, Miss_rate = 0.505, Pending_hits = 1340, Reservation_fails = 0
L2_cache_bank[14]: Access = 13668, Miss = 6832, Miss_rate = 0.500, Pending_hits = 1360, Reservation_fails = 0
L2_cache_bank[15]: Access = 13540, Miss = 6832, Miss_rate = 0.505, Pending_hits = 1338, Reservation_fails = 0
L2_cache_bank[16]: Access = 13676, Miss = 6832, Miss_rate = 0.500, Pending_hits = 1258, Reservation_fails = 0
L2_cache_bank[17]: Access = 13532, Miss = 6832, Miss_rate = 0.505, Pending_hits = 1295, Reservation_fails = 0
L2_cache_bank[18]: Access = 13674, Miss = 6832, Miss_rate = 0.500, Pending_hits = 1315, Reservation_fails = 0
L2_cache_bank[19]: Access = 13536, Miss = 6832, Miss_rate = 0.505, Pending_hits = 1394, Reservation_fails = 0
L2_cache_bank[20]: Access = 13674, Miss = 6832, Miss_rate = 0.500, Pending_hits = 1310, Reservation_fails = 0
L2_cache_bank[21]: Access = 13538, Miss = 6832, Miss_rate = 0.505, Pending_hits = 1309, Reservation_fails = 0
L2_cache_bank[22]: Access = 13670, Miss = 6832, Miss_rate = 0.500, Pending_hits = 1282, Reservation_fails = 0
L2_cache_bank[23]: Access = 13540, Miss = 6832, Miss_rate = 0.505, Pending_hits = 1290, Reservation_fails = 0
L2_cache_bank[24]: Access = 13662, Miss = 6832, Miss_rate = 0.500, Pending_hits = 1372, Reservation_fails = 0
L2_cache_bank[25]: Access = 13536, Miss = 6832, Miss_rate = 0.505, Pending_hits = 1348, Reservation_fails = 0
L2_cache_bank[26]: Access = 13670, Miss = 6832, Miss_rate = 0.500, Pending_hits = 1342, Reservation_fails = 0
L2_cache_bank[27]: Access = 13542, Miss = 6832, Miss_rate = 0.505, Pending_hits = 1284, Reservation_fails = 0
L2_cache_bank[28]: Access = 13664, Miss = 6832, Miss_rate = 0.500, Pending_hits = 1306, Reservation_fails = 0
L2_cache_bank[29]: Access = 13542, Miss = 6832, Miss_rate = 0.505, Pending_hits = 1305, Reservation_fails = 0
L2_cache_bank[30]: Access = 13668, Miss = 6832, Miss_rate = 0.500, Pending_hits = 1333, Reservation_fails = 0
L2_cache_bank[31]: Access = 13542, Miss = 6832, Miss_rate = 0.505, Pending_hits = 1254, Reservation_fails = 0
L2_cache_bank[32]: Access = 13662, Miss = 6832, Miss_rate = 0.500, Pending_hits = 1338, Reservation_fails = 0
L2_cache_bank[33]: Access = 13546, Miss = 6832, Miss_rate = 0.504, Pending_hits = 1281, Reservation_fails = 0
L2_cache_bank[34]: Access = 13662, Miss = 6832, Miss_rate = 0.500, Pending_hits = 1364, Reservation_fails = 0
L2_cache_bank[35]: Access = 13542, Miss = 6832, Miss_rate = 0.505, Pending_hits = 1320, Reservation_fails = 0
L2_cache_bank[36]: Access = 13664, Miss = 6832, Miss_rate = 0.500, Pending_hits = 1348, Reservation_fails = 0
L2_cache_bank[37]: Access = 13532, Miss = 6832, Miss_rate = 0.505, Pending_hits = 1321, Reservation_fails = 0
L2_cache_bank[38]: Access = 13670, Miss = 6832, Miss_rate = 0.500, Pending_hits = 1286, Reservation_fails = 0
L2_cache_bank[39]: Access = 13542, Miss = 6832, Miss_rate = 0.505, Pending_hits = 1306, Reservation_fails = 0
L2_cache_bank[40]: Access = 13668, Miss = 6832, Miss_rate = 0.500, Pending_hits = 1299, Reservation_fails = 0
L2_cache_bank[41]: Access = 13546, Miss = 6832, Miss_rate = 0.504, Pending_hits = 1293, Reservation_fails = 0
L2_cache_bank[42]: Access = 13660, Miss = 6832, Miss_rate = 0.500, Pending_hits = 1327, Reservation_fails = 0
L2_cache_bank[43]: Access = 13540, Miss = 6832, Miss_rate = 0.505, Pending_hits = 1267, Reservation_fails = 0
L2_cache_bank[44]: Access = 13670, Miss = 6832, Miss_rate = 0.500, Pending_hits = 1337, Reservation_fails = 0
L2_cache_bank[45]: Access = 13530, Miss = 6832, Miss_rate = 0.505, Pending_hits = 1346, Reservation_fails = 0
L2_cache_bank[46]: Access = 13668, Miss = 6832, Miss_rate = 0.500, Pending_hits = 1346, Reservation_fails = 0
L2_cache_bank[47]: Access = 13540, Miss = 6832, Miss_rate = 0.505, Pending_hits = 1330, Reservation_fails = 0
L2_cache_bank[48]: Access = 13676, Miss = 6832, Miss_rate = 0.500, Pending_hits = 1311, Reservation_fails = 0
L2_cache_bank[49]: Access = 13532, Miss = 6832, Miss_rate = 0.505, Pending_hits = 1266, Reservation_fails = 0
L2_cache_bank[50]: Access = 13674, Miss = 6832, Miss_rate = 0.500, Pending_hits = 1344, Reservation_fails = 0
L2_cache_bank[51]: Access = 13536, Miss = 6832, Miss_rate = 0.505, Pending_hits = 1377, Reservation_fails = 0
L2_cache_bank[52]: Access = 13674, Miss = 6832, Miss_rate = 0.500, Pending_hits = 1301, Reservation_fails = 0
L2_cache_bank[53]: Access = 13538, Miss = 6832, Miss_rate = 0.505, Pending_hits = 1328, Reservation_fails = 0
L2_cache_bank[54]: Access = 13670, Miss = 6832, Miss_rate = 0.500, Pending_hits = 1289, Reservation_fails = 0
L2_cache_bank[55]: Access = 13540, Miss = 6832, Miss_rate = 0.505, Pending_hits = 1300, Reservation_fails = 0
L2_cache_bank[56]: Access = 13662, Miss = 6832, Miss_rate = 0.500, Pending_hits = 1384, Reservation_fails = 0
L2_cache_bank[57]: Access = 13536, Miss = 6832, Miss_rate = 0.505, Pending_hits = 1348, Reservation_fails = 0
L2_cache_bank[58]: Access = 13670, Miss = 6832, Miss_rate = 0.500, Pending_hits = 1348, Reservation_fails = 0
L2_cache_bank[59]: Access = 13542, Miss = 6832, Miss_rate = 0.505, Pending_hits = 1294, Reservation_fails = 0
L2_cache_bank[60]: Access = 13664, Miss = 6832, Miss_rate = 0.500, Pending_hits = 1339, Reservation_fails = 0
L2_cache_bank[61]: Access = 13542, Miss = 6832, Miss_rate = 0.505, Pending_hits = 1297, Reservation_fails = 0
L2_cache_bank[62]: Access = 13668, Miss = 6832, Miss_rate = 0.500, Pending_hits = 1307, Reservation_fails = 0
L2_cache_bank[63]: Access = 13542, Miss = 6832, Miss_rate = 0.505, Pending_hits = 1244, Reservation_fails = 0
L2_total_cache_accesses = 870616
L2_total_cache_misses = 437248
L2_total_cache_miss_rate = 0.5022
L2_total_cache_pending_hits = 84415
L2_total_cache_reservation_fails = 0
L2_total_cache_breakdown:
	L2_cache_stats_breakdown[GLOBAL_ACC_R][HIT] = 348953
	L2_cache_stats_breakdown[GLOBAL_ACC_R][HIT_RESERVED] = 84415
	L2_cache_stats_breakdown[GLOBAL_ACC_R][MISS] = 65536
	L2_cache_stats_breakdown[GLOBAL_ACC_R][RESERVATION_FAIL] = 0
	L2_cache_stats_breakdown[GLOBAL_ACC_R][SECTOR_MISS] = 196608
	L2_cache_stats_breakdown[GLOBAL_ACC_R][MSHR_HIT] = 84415
	L2_cache_stats_breakdown[LOCAL_ACC_R][HIT] = 0
	L2_cache_stats_breakdown[LOCAL_ACC_R][HIT_RESERVED] = 0
	L2_cache_stats_breakdown[LOCAL_ACC_R][MISS] = 0
	L2_cache_stats_breakdown[LOCAL_ACC_R][RESERVATION_FAIL] = 0
	L2_cache_stats_breakdown[LOCAL_ACC_R][SECTOR_MISS] = 0
	L2_cache_stats_breakdown[LOCAL_ACC_R][MSHR_HIT] = 0
	L2_cache_stats_breakdown[CONST_ACC_R][HIT] = 0
	L2_cache_stats_breakdown[CONST_ACC_R][HIT_RESERVED] = 0
	L2_cache_stats_breakdown[CONST_ACC_R][MISS] = 0
	L2_cache_stats_breakdown[CONST_ACC_R][RESERVATION_FAIL] = 0
	L2_cache_stats_breakdown[CONST_ACC_R][SECTOR_MISS] = 0
	L2_cache_stats_breakdown[CONST_ACC_R][MSHR_HIT] = 0
	L2_cache_stats_breakdown[TEXTURE_ACC_R][HIT] = 0
	L2_cache_stats_breakdown[TEXTURE_ACC_R][HIT_RESERVED] = 0
	L2_cache_stats_breakdown[TEXTURE_ACC_R][MISS] = 0
	L2_cache_stats_breakdown[TEXTURE_ACC_R][RESERVATION_FAIL] = 0
	L2_cache_stats_breakdown[TEXTURE_ACC_R][SECTOR_MISS] = 0
	L2_cache_stats_breakdown[TEXTURE_ACC_R][MSHR_HIT] = 0
	L2_cache_stats_breakdown[GLOBAL_ACC_W][HIT] = 0
	L2_cache_stats_breakdown[GLOBAL_ACC_W][HIT_RESERVED] = 0
	L2_cache_stats_breakdown[GLOBAL_ACC_W][MISS] = 32768
	L2_cache_stats_breakdown[GLOBAL_ACC_W][RESERVATION_FAIL] = 0
	L2_cache_stats_breakdown[GLOBAL_ACC_W][SECTOR_MISS] = 142336
	L2_cache_stats_breakdown[GLOBAL_ACC_W][MSHR_HIT] = 0
	L2_cache_stats_breakdown[LOCAL_ACC_W][HIT] = 0
	L2_cache_stats_breakdown[LOCAL_ACC_W][HIT_RESERVED] = 0
	L2_cache_stats_breakdown[LOCAL_ACC_W][MISS] = 0
	L2_cache_stats_breakdown[LOCAL_ACC_W][RESERVATION_FAIL] = 0
	L2_cache_stats_breakdown[LOCAL_ACC_W][SECTOR_MISS] = 0
	L2_cache_stats_breakdown[LOCAL_ACC_W][MSHR_HIT] = 0
	L2_cache_stats_breakdown[L1_WRBK_ACC][HIT] = 0
	L2_cache_stats_breakdown[L1_WRBK_ACC][HIT_RESERVED] = 0
	L2_cache_stats_breakdown[L1_WRBK_ACC][MISS] = 0
	L2_cache_stats_breakdown[L1_WRBK_ACC][RESERVATION_FAIL] = 0
	L2_cache_stats_breakdown[L1_WRBK_ACC][SECTOR_MISS] = 0
	L2_cache_stats_breakdown[L1_WRBK_ACC][MSHR_HIT] = 0
	L2_cache_stats_breakdown[L2_WRBK_ACC][HIT] = 0
	L2_cache_stats_breakdown[L2_WRBK_ACC][HIT_RESERVED] = 0
	L2_cache_stats_breakdown[L2_WRBK_ACC][MISS] = 0
	L2_cache_stats_breakdown[L2_WRBK_ACC][RESERVATION_FAIL] = 0
	L2_cache_stats_breakdown[L2_WRBK_ACC][SECTOR_MISS] = 0
	L2_cache_stats_breakdown[L2_WRBK_ACC][MSHR_HIT] = 0
	L2_cache_stats_breakdown[INST_ACC_R][HIT] = 0
	L2_cache_stats_breakdown[INST_ACC_R][HIT_RESERVED] = 0
	L2_cache_stats_breakdown[INST_ACC_R][MISS] = 0
	L2_cache_stats_breakdown[INST_ACC_R][RESERVATION_FAIL] = 0
	L2_cache_stats_breakdown[INST_ACC_R][SECTOR_MISS] = 0
	L2_cache_stats_breakdown[INST_ACC_R][MSHR_HIT] = 0
	L2_cache_stats_breakdown[L1_WR_ALLOC_R][HIT] = 0
	L2_cache_stats_breakdown[L1_WR_ALLOC_R][HIT_RESERVED] = 0
	L2_cache_stats_breakdown[L1_WR_ALLOC_R][MISS] = 0
	L2_cache_stats_breakdown[L1_WR_ALLOC_R][RESERVATION_FAIL] = 0
	L2_cache_stats_breakdown[L1_WR_ALLOC_R][SECTOR_MISS] = 0
	L2_cache_stats_breakdown[L1_WR_ALLOC_R][MSHR_HIT] = 0
	L2_cache_stats_breakdown[L2_WR_ALLOC_R][HIT] = 0
	L2_cache_stats_breakdown[L2_WR_ALLOC_R][HIT_RESERVED] = 0
	L2_cache_stats_breakdown[L2_WR_ALLOC_R][MISS] = 0
	L2_cache_stats_breakdown[L2_WR_ALLOC_R][RESERVATION_FAIL] = 0
	L2_cache_stats_breakdown[L2_WR_ALLOC_R][SECTOR_MISS] = 0
	L2_cache_stats_breakdown[L2_WR_ALLOC_R][MSHR_HIT] = 0
	L2_cache_stats_breakdown[GLOBAL_ACC_R][TOTAL_ACCESS] = 779927
	L2_cache_stats_breakdown[GLOBAL_ACC_W][TOTAL_ACCESS] = 175104
L2_total_cache_reservation_fail_breakdown:
L2_cache_data_port_util = 0.230
L2_cache_fill_port_util = 0.157

icnt_total_pkts_mem_to_simt=870616
icnt_total_pkts_simt_to_mem=870616
LD_mem_lat_dist  0 0 0 0 0 0 0 0 0 0 0 0 0 0 0 0 0 0 0 0 0 0 0 0 0 0 0
ST_mem_lat_dist  0 0 0 0 0 0 0 0 0 0 0 0 0 0 0 0 0 0 0 0 0 0 0 0 0 0 0
----------------------------Interconnect-DETAILS--------------------------------
Req_Network_injected_packets_num = 870616
Req_Network_cycles = 26075
Req_Network_injected_packets_per_cycle =      33.3889 
Req_Network_conflicts_per_cycle =      31.3634
Req_Network_conflicts_per_cycle_util =      39.9180
Req_Bank_Level_Parallism =      42.4960
Req_Network_in_buffer_full_per_cycle =     354.6263
Req_Network_in_buffer_avg_util =     358.2657
Req_Network_out_buffer_full_per_cycle =       0.0000
Req_Network_out_buffer_avg_util =       0.5217

Reply_Network_injected_packets_num = 870616
Reply_Network_cycles = 26075
Reply_Network_injected_packets_per_cycle =       33.3889
Reply_Network_conflicts_per_cycle =       17.2225
Reply_Network_conflicts_per_cycle_util =      22.0611
Reply_Bank_Level_Parallism =      42.7695
Reply_Network_in_buffer_full_per_cycle =       0.0000
Reply_Network_in_buffer_avg_util =       5.3910
Reply_Network_out_buffer_full_per_cycle =       0.0000
Reply_Network_out_buffer_avg_util =       0.4174
----------------------------END-of-Interconnect-DETAILS-------------------------


gpgpu_simulation_time = 0 days, 1 hrs, 29 min, 53 sec (5393 sec)
gpgpu_simulation_rate = 66867 (inst/sec)
gpgpu_simulation_rate = 4 (cycle/sec)
gpgpu_silicon_slowdown = 283000000x
GPGPU-Sim: *** simulation thread exiting ***
GPGPU-Sim: *** exit detected ***
