Skipping setup_environment - already set
doing: export -n PTX_SIM_USE_PTX_FILE
doing: export LD_LIBRARY_PATH=/home/min/a/devlinc/Documents/ECE60827/hardware-sim-assgn-2/hardware-simulation-assignment-2-texashodlr/util/job_launching/../../sim_run_9.1/gpgpu-sim-builds/gpgpu-sim_git-commit-a5339f56558d282e0ff48181156f07c28d32c1b6_modified_0.0:/home/min/a/devlinc/Documents/ECE60827/hardware-sim-assgn-2/hardware-simulation-assignment-2-texashodlr/gpu-simulator/gpgpu-sim/lib/gcc-8.3.0/cuda-9010/release:/home/min/a/devlinc/Documents/ECE60827/hardware-sim-assgn-2/hardware-simulation-assignment-2-texashodlr/gpu-simulator/gpgpu-sim/lib/gcc-8.3.0/cuda-9010/release:/package/gcc/8.3.0/lib64:
doing: cd /home/min/a/devlinc/Documents/ECE60827/hardware-sim-assgn-2/hardware-simulation-assignment-2-texashodlr/util/job_launching/../../sim_run_9.1/bfs-rodinia-3.1/__data_graph1MW_6_txt/QV100-PTX-1B_INSN
doing: export OPENCL_CURRENT_TEST_PATH=/home/min/a/devlinc/Documents/ECE60827/hardware-sim-assgn-2/hardware-simulation-assignment-2-texashodlr/util/job_launching/../../sim_run_9.1/bfs-rodinia-3.1/__data_graph1MW_6_txt/QV100-PTX-1B_INSN
doing: export OPENCL_REMOTE_GPU_HOST=REPLACE_REMOTE_HOST
doing 
doing: export PATH=/home/min/a/devlinc/Documents/ECE60827/hardware-sim-assgn-2/hardware-simulation-assignment-2-texashodlr/gpu-simulator/gpgpu-sim/bin:/home/min/a/ee695paa/cuda/bin:/home/min/a/ee695paa/cuda/bin:/home/min/a/ee695paa/cuda/bin:/package/gcc/8.3.0/bin:/usr/lib64/qt-3.3/bin:/usr/lib64/ccache:/usr/local/bin:/usr/bin:/usr/local/sbin:/usr/sbin:.
doing export CUDA_LAUNCH_BLOCKING=1
doing:  /home/min/a/ee695paa/github/gpu-app-collection/src/..//bin/9.1/release/bfs-rodinia-3.1 ./data/graph1MW_6.txt


        *** GPGPU-Sim Simulator Version 4.0.0  [build gpgpu-sim_git-commit-a5339f56558d282e0ff48181156f07c28d32c1b6_modified_0.0] ***


GPGPU-Sim PTX: simulation mode 0 (can change with PTX_SIM_MODE_FUNC environment variable:
               1=functional simulation only, 0=detailed performance simulator)
GPGPU-Sim: Configuration options:

-save_embedded_ptx                      0 # saves ptx files embedded in binary as <n>.ptx
-keep                                   0 # keep intermediate files created by GPGPU-Sim when interfacing with external programs
-gpgpu_ptx_save_converted_ptxplus                    0 # Saved converted ptxplus to a file
-gpgpu_occupancy_sm_number                   70 # The SM number to pass to ptxas when getting register usage for computing GPU occupancy. This parameter is required in the config.
-ptx_opcode_latency_int      4,13,4,5,145,21 # Opcode latencies for integers <ADD,MAX,MUL,MAD,DIV,SHFL>Default 1,1,19,25,145,32
-ptx_opcode_latency_fp          4,13,4,5,39 # Opcode latencies for single precision floating points <ADD,MAX,MUL,MAD,DIV>Default 1,1,1,1,30
-ptx_opcode_latency_dp         8,19,8,8,330 # Opcode latencies for double precision floating points <ADD,MAX,MUL,MAD,DIV>Default 8,8,8,8,335
-ptx_opcode_latency_sfu                  100 # Opcode latencies for SFU instructionsDefault 8
-ptx_opcode_latency_tesnor                   64 # Opcode latencies for Tensor instructionsDefault 64
-ptx_opcode_initiation_int          2,2,2,2,8,4 # Opcode initiation intervals for integers <ADD,MAX,MUL,MAD,DIV,SHFL>Default 1,1,4,4,32,4
-ptx_opcode_initiation_fp            2,2,2,2,4 # Opcode initiation intervals for single precision floating points <ADD,MAX,MUL,MAD,DIV>Default 1,1,1,1,5
-ptx_opcode_initiation_dp          4,4,4,4,130 # Opcode initiation intervals for double precision floating points <ADD,MAX,MUL,MAD,DIV>Default 8,8,8,8,130
-ptx_opcode_initiation_sfu                    8 # Opcode initiation intervals for sfu instructionsDefault 8
-ptx_opcode_initiation_tensor                   64 # Opcode initiation intervals for tensor instructionsDefault 64
-cdp_latency         7200,8000,100,12000,1600 # CDP API latency <cudaStreamCreateWithFlags, cudaGetParameterBufferV2_init_perWarp, cudaGetParameterBufferV2_perKernel, cudaLaunchDeviceV2_init_perWarp, cudaLaunchDevicV2_perKernel>Default 7200,8000,100,12000,1600
-network_mode                           2 # Interconnection network mode
-inter_config_file                   mesh # Interconnection network config file
-icnt_in_buffer_limit                  512 # in_buffer_limit
-icnt_out_buffer_limit                  512 # out_buffer_limit
-icnt_subnets                           2 # subnets
-icnt_arbiter_algo                      1 # arbiter_algo
-icnt_verbose                           0 # inct_verbose
-icnt_grant_cycles                      1 # grant_cycles
-gpgpu_ptx_use_cuobjdump                    1 # Use cuobjdump to extract ptx and sass from binaries
-gpgpu_experimental_lib_support                    0 # Try to extract code from cuda libraries [Broken because of unknown cudaGetExportTable]
-checkpoint_option                      0 #  checkpointing flag (0 = no checkpoint)
-checkpoint_kernel                      1 #  checkpointing during execution of which kernel (1- 1st kernel)
-checkpoint_CTA                         0 #  checkpointing after # of CTA (< less than total CTA)
-resume_option                          0 #  resume flag (0 = no resume)
-resume_kernel                          0 #  Resume from which kernel (1= 1st kernel)
-resume_CTA                             0 #  resume from which CTA 
-checkpoint_CTA_t                       0 #  resume from which CTA 
-checkpoint_insn_Y                      0 #  resume from which CTA 
-gpgpu_ptx_convert_to_ptxplus                    0 # Convert SASS (native ISA) to ptxplus and run ptxplus
-gpgpu_ptx_force_max_capability                   70 # Force maximum compute capability
-gpgpu_ptx_inst_debug_to_file                    0 # Dump executed instructions' debug information to file
-gpgpu_ptx_inst_debug_file       inst_debug.txt # Executed instructions' debug output file
-gpgpu_ptx_inst_debug_thread_uid                    1 # Thread UID for executed instructions' debug output
-gpgpu_simd_model                       1 # 1 = post-dominator
-gpgpu_shader_core_pipeline              2048:32 # shader core pipeline config, i.e., {<nthread>:<warpsize>}
-gpgpu_tex_cache:l1  N:4:128:256,L:R:m:N:L,T:512:8,128:2 # per-shader L1 texture cache  (READ-ONLY) config  {<nsets>:<bsize>:<assoc>,<rep>:<wr>:<alloc>:<wr_alloc>,<mshr>:<N>:<merge>,<mq>:<rf>}
-gpgpu_const_cache:l1 N:128:64:8,L:R:f:N:L,S:2:64,4 # per-shader L1 constant memory cache  (READ-ONLY) config  {<nsets>:<bsize>:<assoc>,<rep>:<wr>:<alloc>:<wr_alloc>,<mshr>:<N>:<merge>,<mq>} 
-gpgpu_cache:il1     N:64:128:16,L:R:f:N:L,S:2:48,4 # shader L1 instruction cache config  {<nsets>:<bsize>:<assoc>,<rep>:<wr>:<alloc>:<wr_alloc>,<mshr>:<N>:<merge>,<mq>} 
-gpgpu_cache:dl1     S:1:128:256,L:L:m:N:L,A:512:8,16:0,32 # per-shader L1 data cache config  {<nsets>:<bsize>:<assoc>,<rep>:<wr>:<alloc>:<wr_alloc>,<mshr>:<N>:<merge>,<mq> | none}
-gpgpu_l1_banks                         4 # The number of L1 cache banks
-gpgpu_l1_banks_byte_interleaving                   32 # l1 banks byte interleaving granularity
-gpgpu_l1_banks_hashing_function                    0 # l1 banks hashing function
-gpgpu_l1_latency                      20 # L1 Hit Latency
-gpgpu_smem_latency                    20 # smem Latency
-gpgpu_cache:dl1PrefL1                 none # per-shader L1 data cache config  {<nsets>:<bsize>:<assoc>,<rep>:<wr>:<alloc>:<wr_alloc>,<mshr>:<N>:<merge>,<mq> | none}
-gpgpu_cache:dl1PrefShared                 none # per-shader L1 data cache config  {<nsets>:<bsize>:<assoc>,<rep>:<wr>:<alloc>:<wr_alloc>,<mshr>:<N>:<merge>,<mq> | none}
-gpgpu_gmem_skip_L1D                    0 # global memory access skip L1D cache (implements -Xptxas -dlcm=cg, default=no skip)
-gpgpu_perfect_mem                      0 # enable perfect memory mode (no cache miss)
-n_regfile_gating_group                    4 # group of lanes that should be read/written together)
-gpgpu_clock_gated_reg_file                    0 # enable clock gated reg file for power calculations
-gpgpu_clock_gated_lanes                    0 # enable clock gated lanes for power calculations
-gpgpu_shader_registers                65536 # Number of registers per shader core. Limits number of concurrent CTAs. (default 8192)
-gpgpu_registers_per_block                65536 # Maximum number of registers per CTA. (default 8192)
-gpgpu_ignore_resources_limitation                    0 # gpgpu_ignore_resources_limitation (default 0)
-gpgpu_shader_cta                      32 # Maximum number of concurrent CTAs in shader (default 8)
-gpgpu_num_cta_barriers                   16 # Maximum number of named barriers per CTA (default 16)
-gpgpu_n_clusters                      80 # number of processing clusters
-gpgpu_n_cores_per_cluster                    1 # number of simd cores per cluster
-gpgpu_n_cluster_ejection_buffer_size                   32 # number of packets in ejection buffer
-gpgpu_n_ldst_response_buffer_size                    2 # number of response packets in ld/st unit ejection buffer
-gpgpu_shmem_per_block                65536 # Size of shared memory per thread block or CTA (default 48kB)
-gpgpu_shmem_size                   98304 # Size of shared memory per shader core (default 16kB)
-gpgpu_adaptive_cache_config                    1 # adaptive_cache_config
-gpgpu_shmem_sizeDefault                98304 # Size of shared memory per shader core (default 16kB)
-gpgpu_shmem_size_PrefL1                16384 # Size of shared memory per shader core (default 16kB)
-gpgpu_shmem_size_PrefShared                16384 # Size of shared memory per shader core (default 16kB)
-gpgpu_shmem_num_banks                   32 # Number of banks in the shared memory in each shader core (default 16)
-gpgpu_shmem_limited_broadcast                    0 # Limit shared memory to do one broadcast per cycle (default on)
-gpgpu_shmem_warp_parts                    1 # Number of portions a warp is divided into for shared memory bank conflict check 
-gpgpu_mem_unit_ports                    1 # The number of memory transactions allowed per core cycle
-gpgpu_shmem_warp_parts                    1 # Number of portions a warp is divided into for shared memory bank conflict check 
-gpgpu_warpdistro_shader                   -1 # Specify which shader core to collect the warp size distribution from
-gpgpu_warp_issue_shader                    0 # Specify which shader core to collect the warp issue distribution from
-gpgpu_local_mem_map                    1 # Mapping from local memory space address to simulated GPU physical address space (default = enabled)
-gpgpu_num_reg_banks                   16 # Number of register banks (default = 8)
-gpgpu_reg_bank_use_warp_id                    0 # Use warp ID in mapping registers to banks (default = off)
-gpgpu_sub_core_model                    1 # Sub Core Volta/Pascal model (default = off)
-gpgpu_enable_specialized_operand_collector                    0 # enable_specialized_operand_collector
-gpgpu_operand_collector_num_units_sp                    4 # number of collector units (default = 4)
-gpgpu_operand_collector_num_units_dp                    0 # number of collector units (default = 0)
-gpgpu_operand_collector_num_units_sfu                    4 # number of collector units (default = 4)
-gpgpu_operand_collector_num_units_int                    0 # number of collector units (default = 0)
-gpgpu_operand_collector_num_units_tensor_core                    4 # number of collector units (default = 4)
-gpgpu_operand_collector_num_units_mem                    2 # number of collector units (default = 2)
-gpgpu_operand_collector_num_units_gen                    8 # number of collector units (default = 0)
-gpgpu_operand_collector_num_in_ports_sp                    1 # number of collector unit in ports (default = 1)
-gpgpu_operand_collector_num_in_ports_dp                    0 # number of collector unit in ports (default = 0)
-gpgpu_operand_collector_num_in_ports_sfu                    1 # number of collector unit in ports (default = 1)
-gpgpu_operand_collector_num_in_ports_int                    0 # number of collector unit in ports (default = 0)
-gpgpu_operand_collector_num_in_ports_tensor_core                    1 # number of collector unit in ports (default = 1)
-gpgpu_operand_collector_num_in_ports_mem                    1 # number of collector unit in ports (default = 1)
-gpgpu_operand_collector_num_in_ports_gen                    8 # number of collector unit in ports (default = 0)
-gpgpu_operand_collector_num_out_ports_sp                    1 # number of collector unit in ports (default = 1)
-gpgpu_operand_collector_num_out_ports_dp                    0 # number of collector unit in ports (default = 0)
-gpgpu_operand_collector_num_out_ports_sfu                    1 # number of collector unit in ports (default = 1)
-gpgpu_operand_collector_num_out_ports_int                    0 # number of collector unit in ports (default = 0)
-gpgpu_operand_collector_num_out_ports_tensor_core                    1 # number of collector unit in ports (default = 1)
-gpgpu_operand_collector_num_out_ports_mem                    1 # number of collector unit in ports (default = 1)
-gpgpu_operand_collector_num_out_ports_gen                    8 # number of collector unit in ports (default = 0)
-gpgpu_coalesce_arch                   60 # Coalescing arch (GT200 = 13, Fermi = 20)
-gpgpu_num_sched_per_core                    4 # Number of warp schedulers per core
-gpgpu_max_insn_issue_per_warp                    1 # Max number of instructions that can be issued per warp in one cycle by scheduler (either 1 or 2)
-gpgpu_dual_issue_diff_exec_units                    1 # should dual issue use two different execution unit resources (Default = 1)
-gpgpu_simt_core_sim_order                    1 # Select the simulation order of cores in a cluster (0=Fix, 1=Round-Robin)
-gpgpu_pipeline_widths 4,4,4,4,4,4,4,4,4,4,8,4,4 # Pipeline widths ID_OC_SP,ID_OC_DP,ID_OC_INT,ID_OC_SFU,ID_OC_MEM,OC_EX_SP,OC_EX_DP,OC_EX_INT,OC_EX_SFU,OC_EX_MEM,EX_WB,ID_OC_TENSOR_CORE,OC_EX_TENSOR_CORE
-gpgpu_tensor_core_avail                    1 # Tensor Core Available (default=0)
-gpgpu_num_sp_units                     4 # Number of SP units (default=1)
-gpgpu_num_dp_units                     4 # Number of DP units (default=0)
-gpgpu_num_int_units                    4 # Number of INT units (default=0)
-gpgpu_num_sfu_units                    4 # Number of SF units (default=1)
-gpgpu_num_tensor_core_units                    4 # Number of tensor_core units (default=1)
-gpgpu_num_mem_units                    1 # Number if ldst units (default=1) WARNING: not hooked up to anything
-gpgpu_scheduler                      gto # Scheduler configuration: < lrr | gto | two_level_active > If two_level_active:<num_active_warps>:<inner_prioritization>:<outer_prioritization>For complete list of prioritization values see shader.h enum scheduler_prioritization_typeDefault: gto
-gpgpu_concurrent_kernel_sm                    0 # Support concurrent kernels on a SM (default = disabled)
-gpgpu_perfect_inst_const_cache                    1 # perfect inst and const cache mode, so all inst and const hits in the cache(default = disabled)
-gpgpu_inst_fetch_throughput                    4 # the number of fetched intruction per warp each cycle
-gpgpu_reg_file_port_throughput                    2 # the number ports of the register file
-specialized_unit_1         0,4,4,4,4,BRA # specialized unit config {<enabled>,<num_units>:<latency>:<initiation>,<ID_OC_SPEC>:<OC_EX_SPEC>,<NAME>}
-specialized_unit_2         0,4,4,4,4,BRA # specialized unit config {<enabled>,<num_units>:<latency>:<initiation>,<ID_OC_SPEC>:<OC_EX_SPEC>,<NAME>}
-specialized_unit_3         0,4,4,4,4,BRA # specialized unit config {<enabled>,<num_units>:<latency>:<initiation>,<ID_OC_SPEC>:<OC_EX_SPEC>,<NAME>}
-specialized_unit_4         0,4,4,4,4,BRA # specialized unit config {<enabled>,<num_units>:<latency>:<initiation>,<ID_OC_SPEC>:<OC_EX_SPEC>,<NAME>}
-specialized_unit_5         0,4,4,4,4,BRA # specialized unit config {<enabled>,<num_units>:<latency>:<initiation>,<ID_OC_SPEC>:<OC_EX_SPEC>,<NAME>}
-specialized_unit_6         0,4,4,4,4,BRA # specialized unit config {<enabled>,<num_units>:<latency>:<initiation>,<ID_OC_SPEC>:<OC_EX_SPEC>,<NAME>}
-specialized_unit_7         0,4,4,4,4,BRA # specialized unit config {<enabled>,<num_units>:<latency>:<initiation>,<ID_OC_SPEC>:<OC_EX_SPEC>,<NAME>}
-specialized_unit_8         0,4,4,4,4,BRA # specialized unit config {<enabled>,<num_units>:<latency>:<initiation>,<ID_OC_SPEC>:<OC_EX_SPEC>,<NAME>}
-gpgpu_perf_sim_memcpy                    1 # Fill the L2 cache on memcpy
-gpgpu_simple_dram_model                    0 # simple_dram_model with fixed latency and BW
-gpgpu_dram_scheduler                    1 # 0 = fifo, 1 = FR-FCFS (defaul)
-gpgpu_dram_partition_queues          64:64:64:64 # i2$:$2d:d2$:$2i
-l2_ideal                               0 # Use a ideal L2 cache that always hit
-gpgpu_cache:dl2     S:32:128:24,L:B:m:L:P,A:192:4,32:0,32 # unified banked L2 data cache config  {<nsets>:<bsize>:<assoc>,<rep>:<wr>:<alloc>:<wr_alloc>,<mshr>:<N>:<merge>,<mq>}
-gpgpu_cache:dl2_texture_only                    0 # L2 cache used for texture only
-gpgpu_n_mem                           32 # number of memory modules (e.g. memory controllers) in gpu
-gpgpu_n_sub_partition_per_mchannel                    2 # number of memory subpartition in each memory module
-gpgpu_n_mem_per_ctrlr                    1 # number of memory chips per memory controller
-gpgpu_memlatency_stat                   14 # track and display latency statistics 0x2 enables MC, 0x4 enables queue logs
-gpgpu_frfcfs_dram_sched_queue_size                   64 # 0 = unlimited (default); # entries per chip
-gpgpu_dram_return_queue_size                  192 # 0 = unlimited (default); # entries per chip
-gpgpu_dram_buswidth                   16 # default = 4 bytes (8 bytes per cycle at DDR)
-gpgpu_dram_burst_length                    2 # Burst length of each DRAM request (default = 4 data bus cycle)
-dram_data_command_freq_ratio                    2 # Fr2c2f13c9e651a088ca48d94c6578c489  /home/min/a/ee695paa/github/gpu-app-collection/bin/9.1/release/bfs-rodinia-3.1
Extracting PTX file and ptxas options    1: bfs-rodinia-3.1.sm_30.ptx -arch=sm_30
Extracting PTX file and ptxas options    2: bfs-rodinia-3.2.sm_35.ptx -arch=sm_35
Extracting PTX file and ptxas options    3: bfs-rodinia-3.3.sm_50.ptx -arch=sm_50
Extracting PTX file and ptxas options    4: bfs-rodinia-3.4.sm_60.ptx -arch=sm_60
Extracting PTX file and ptxas options    5: bfs-rodinia-3.5.sm_62.ptx -arch=sm_62
equency ratio between DRAM data bus and command bus (default = 2 times, i.e. DDR)
-gpgpu_dram_timing_opt nbk=16:CCD=1:RRD=3:RCD=12:RAS=28:RP=12:RC=40: CL=12:WL=2:CDLR=3:WR=10:nbkgrp=4:CCDL=2:RTPL=3 # DRAM timing parameters = {nbk:tCCD:tRRD:tRCD:tRAS:tRP:tRC:CL:WL:tCDLR:tWR:nbkgrp:tCCDL:tRTPL}
-gpgpu_l2_rop_latency                  160 # ROP queue latency (default 85)
-dram_latency                         100 # DRAM latency (default 30)
-dram_dual_bus_interface                    1 # dual_bus_interface (default = 0) 
-dram_bnk_indexing_policy                    0 # dram_bnk_indexing_policy (0 = normal indexing, 1 = Xoring with the higher bits) (Default = 0)
-dram_bnkgrp_indexing_policy                    1 # dram_bnkgrp_indexing_policy (0 = take higher bits, 1 = take lower bits) (Default = 0)
-dram_seperate_write_queue_enable                    0 # Seperate_Write_Queue_Enable
-dram_write_queue_size             32:28:16 # Write_Queue_Size
-dram_elimnate_rw_turnaround                    0 # elimnate_rw_turnaround i.e set tWTR and tRTW = 0
-icnt_flit_size                        40 # icnt_flit_size
-gpgpu_mem_addr_mapping dramid@8;00000000.00000000.00000000.00000000.0000RRRR.RRRRRRRR.RBBBCCCB.CCCSSSSS # mapping memory address to dram model {dramid@<start bit>;<memory address map>}
-gpgpu_mem_addr_test                    0 # run sweep test to check address mapping for aliased address
-gpgpu_mem_address_mask                    1 # 0 = old addressing mask, 1 = new addressing mask, 2 = new add. mask + flipped bank sel and chip sel bits
-gpgpu_memory_partition_indexing                    2 # 0 = no indexing, 1 = bitwise xoring, 2 = IPoly, 3 = custom indexing
-gpuwattch_xml_file         gpuwattch.xml # GPUWattch XML file
-power_simulation_enabled                    0 # Turn on power simulator (1=On, 0=Off)
-power_per_cycle_dump                    0 # Dump detailed power output each cycle
-power_trace_enabled                    0 # produce a file for the power trace (1=On, 0=Off)
-power_trace_zlevel                     6 # Compression level of the power trace output log (0=no comp, 9=highest)
-steady_power_levels_enabled                    0 # produce a file for the steady power levels (1=On, 0=Off)
-steady_state_definition                  8:4 # allowed deviation:number of samples
-gpgpu_max_cycle                        0 # terminates gpu simulation early (0 = no limit)
-gpgpu_max_insn                1000000000 # terminates gpu simulation early (0 = no limit)
-gpgpu_max_cta                          0 # terminates gpu simulation early (0 = no limit)
-gpgpu_max_completed_cta                    0 # terminates gpu simulation early (0 = no limit)
-gpgpu_runtime_stat                   500 # display runtime statistics such as dram utilization {<freq>:<flag>}
-liveness_message_freq                    1 # Minimum number of seconds between simulation liveness messages (0 = always print)
-gpgpu_compute_capability_major                    7 # Major compute capability version number
-gpgpu_compute_capability_minor                    0 # Minor compute capability version number
-gpgpu_flush_l1_cache                    1 # Flush L1 cache at the end of each kernel call
-gpgpu_flush_l2_cache                    0 # Flush L2 cache at the end of each kernel call
-gpgpu_deadlock_detect                    1 # Stop the simulation at deadlock (1=on (default), 0=off)
-gpgpu_ptx_instruction_classification                    0 # if enabled will classify ptx instruction types per kernel (Max 255 kernels now)
-gpgpu_ptx_sim_mode                     0 # Select between Performance (default) or Functional simulation (1)
-gpgpu_clock_domains 1132.0:1132.0:1132.0:850.0 # Clock Domain Frequencies in MhZ {<Core Clock>:<ICNT Clock>:<L2 Clock>:<DRAM Clock>}
-gpgpu_max_concurrent_kernel                    8 # maximum kernels that can run concurrently on GPU
-gpgpu_cflog_interval                    0 # Interval between each snapshot in control flow logger
-visualizer_enabled                     0 # Turn on visualizer output (1=On, 0=Off)
-visualizer_outputfile                 NULL # Specifies the output log file for visualizer
-visualizer_zlevel                      6 # Compression level of the visualizer output log (0=no comp, 9=highest)
-gpgpu_stack_size_limit                 1024 # GPU thread stack size
-gpgpu_heap_size_limit              8388608 # GPU malloc heap size 
-gpgpu_runtime_sync_depth_limit                    2 # GPU device runtime synchronize depth
-gpgpu_runtime_pending_launch_count_limit                 2048 # GPU device runtime pending launch count
-trace_enabled                          0 # Turn on traces
-trace_components                    none # comma seperated list of traces to enable. Complete list found in trace_streams.tup. Default none
-trace_sampling_core                    0 # The core which is printed using CORE_DPRINTF. Default 0
-trace_sampling_memory_partition                   -1 # The memory partition which is printed using MEMPART_DPRINTF. Default -1 (i.e. all)
-enable_ptx_file_line_stats                    1 # Turn on PTX source line statistic profiling. (1 = On)
-ptx_line_stats_filename gpgpu_inst_stats.txt # Output file for PTX source line statistics.
-gpgpu_kernel_launch_latency                 5000 # Kernel launch latency in cycles. Default: 0
-gpgpu_cdp_enabled                      0 # Turn on CDP
-gpgpu_TB_launch_latency                    0 # thread block launch latency in cycles. Default: 0
DRAM Timing Options:
nbk                                    16 # number of banks
CCD                                     1 # column to column delay
RRD                                     3 # minimal delay between activation of rows in different banks
RCD                                    12 # row to column delay
RAS                                    28 # time needed to activate row
RP                                     12 # time needed to precharge (deactivate) row
RC                                     40 # row cycle time
CDLR                                    3 # switching from write to read (changes tWTR)
WR                                     10 # last data-in to row precharge
CL                                     12 # CAS latency
WL                                      2 # Write latency
nbkgrp                                  4 # number of bank groups
CCDL                                    2 # column to column delay between accesses to different bank groups
RTPL                                    3 # read to precharge delay between accesses to different bank groups
Total number of memory sub partition = 64
addr_dec_mask[CHIP]  = 0000000000001f00 	high:13 low:8
addr_dec_mask[BK]    = 00000000000e2000 	high:20 low:13
addr_dec_mask[ROW]   = 00000001fff00000 	high:33 low:20
addr_dec_mask[COL]   = 000000000001c0ff 	high:17 low:0
addr_dec_mask[BURST] = 000000000000001f 	high:5 low:0
sub_partition_id_mask = 0000000000002000
GPGPU-Sim uArch: clock freqs: 1132000000.000000:1132000000.000000:1132000000.000000:850000000.000000
GPGPU-Sim uArch: clock periods: 0.00000000088339222615:0.00000000088339222615:0.00000000088339222615:0.00000000117647058824
*** Initializing Memory Statistics ***
GPGPU-Sim uArch: performance model initialization complete.
self exe links to: /home/min/a/ee695paa/github/gpu-app-collection/bin/9.1/release/bfs-rodinia-3.1
self exe links to: /home/min/a/ee695paa/github/gpu-app-collection/bin/9.1/release/bfs-rodinia-3.1
9.1
GPGPU-Sim PTX: __cudaRegisterFatBinary, fat_cubin_handle = 1, filename=default
self exe links to: /home/min/a/ee695paa/github/gpu-app-collection/bin/9.1/release/bfs-rodinia-3.1
Running md5sum using "md5sum /home/min/a/ee695paa/github/gpu-app-collection/bin/9.1/release/bfs-rodinia-3.1 "
self exe links to: /home/min/a/ee695paa/github/gpu-app-collection/bin/9.1/release/bfs-rodinia-3.1
Extracting specific PTX file named bfs-rodinia-3.1.sm_30.ptx 
Extracting specific PTX file named bfs-rodinia-3.2.sm_35.ptx 
Extracting specific PTX file named bfs-rodinia-3.3.sm_50.ptx 
Extracting specific PTX file named bfs-rodinia-3.4.sm_60.ptx 
Extracting specific PTX file named bfs-rodinia-3.5.sm_62.ptx 
Extracting specific PTX file nameExtracting PTX file and ptxas options    6: bfs-rodinia-3.6.sm_70.ptx -arch=sm_70
d bfs-rodinia-3.6.sm_70.ptx 
GPGPU-Sim PTX: __cudaRegisterFunction _Z7Kernel2PbS_S_S_i : hostFun 0x0x400e90, fat_cubin_handle = 1
GPGPU-Sim PTX: Parsing bfs-rodinia-3.1.sm_30.ptx
GPGPU-Sim PTX: instruction assembly for function '_Z6KernelP4NodePiPbS2_S2_S1_i'...   done.
GPGPU-Sim PTX: instruction assembly for function '_Z7Kernel2PbS_S_S_i'...   done.
GPGPU-Sim PTX: finished parsing EMBEDDED .ptx file bfs-rodinia-3.1.sm_30.ptx
GPGPU-Sim PTX: Parsing bfs-rodinia-3.2.sm_35.ptx
GPGPU-Sim PTX: Warning %p0 was declared previous at bfs-rodinia-3.1.sm_30.ptx:25 skipping new declaration
GPGPU-Sim PTX: Warning %p1 was declared previous at bfs-rodinia-3.1.sm_30.ptx:25 skipping new declaration
GPGPU-Sim PTX: Warning %p2 was declared previous at bfs-rodinia-3.1.sm_30.ptx:25 skipping new declaration
GPGPU-Sim PTX: Warning %p3 was declared previous at bfs-rodinia-3.1.sm_30.ptx:25 skipping new declaration
GPGPU-Sim PTX: Warning %p4 was declared previous at bfs-rodinia-3.1.sm_30.ptx:25 skipping new declaration
GPGPU-Sim PTX: Warning %p5 was declared previous at bfs-rodinia-3.1.sm_30.ptx:25 skipping new declaration
GPGPU-Sim PTX: Warning %rs0 was declared previous at bfs-rodinia-3.1.sm_30.ptx:26 skipping new declaration
GPGPU-Sim PTX: Warning %rs1 was declared previous at bfs-rodinia-3.1.sm_30.ptx:26 skipping new declaration
GPGPU-Sim PTX: Warning %rs2 was declared previous at bfs-rodinia-3.1.sm_30.ptx:26 skipping new declaration
GPGPU-Sim PTX: Warning %rs3 was declared previous at bfs-rodinia-3.1.sm_30.ptx:26 skipping new declaration
GPGPU-Sim PTX: Warning %rs4 was declared previous at bfs-rodinia-3.1.sm_30.ptx:26 skipping new declaration
GPGPU-Sim PTX: Warning %r0 was declared previous at bfs-rodinia-3.1.sm_30.ptx:27 skipping new declaration
GPGPU-Sim PTX: Warning %r1 was declared previous at bfs-rodinia-3.1.sm_30.ptx:27 skipping new declaration
GPGPU-Sim PTX: Warning %r2 was declared previous at bfs-rodinia-3.1.sm_30.ptx:27 skipping new declaration
GPGPU-Sim PTX: Warning %r3 was declared previous at bfs-rodinia-3.1.sm_30.ptx:27 skipping new declaration
GPGPU-Sim PTX: Warning %r4 was declared previous at bfs-rodinia-3.1.sm_30.ptx:27 skipping new declaration
GPGPU-Sim PTX: Warning %r5 was declared previous at bfs-rodinia-3.1.sm_30.ptx:27 skipping new declaration
GPGPU-Sim PTX: Warning %r6 was declared previous at bfs-rodinia-3.1.sm_30.ptx:27 skipping new declaration
GPGPU-Sim PTX: Warning %r7 was declared previous at bfs-rodinia-3.1.sm_30.ptx:27 skipping new declaration
GPGPU-Sim PTX: Warning %r8 was declared previous at bfs-rodinia-3.1.sm_30.ptx:27 skipping new declaration
GPGPU-Sim PTX: Warning %r9 was declared previous at bfs-rodinia-3.1.sm_30.ptx:27 skipping new declaration
GPGPU-Sim PTX: Warning %r10 was declared previous at bfs-rodinia-3.1.sm_30.ptx:27 skipping new declaration
GPGPU-Sim PTX: Warning %r11 was declared previous at bfs-rodinia-3.1.sm_30.ptx:27 skipping new declaration
GPGPU-Sim PTX: Warning %r12 was declared previous at bfs-rodinia-3.1.sm_30.ptx:27 skipping new declaration
GPGPU-Sim PTX: Warning %r13 was declared previous at bfs-rodinia-3.1.sm_30.ptx:27 skipping new declaration
GPGPU-Sim PTX: Warning %r14 was declared previous at bfs-rodinia-3.1.sm_30.ptx:27 skipping new declaration
GPGPU-Sim PTX: Warning %r15 was declared previous at bfs-rodinia-3.1.sm_30.ptx:27 skipping new declaration
GPGPU-Sim PTX: Warning %r16 was declared previous at bfs-rodinia-3.1.sm_30.ptx:27 skipping new declaration
GPGPU-Sim PTX: Warning %r17 was declared previous at bfs-rodinia-3.1.sm_30.ptx:27 skipping new declaration
GPGPU-Sim PTX: Warning %r18 was declared previous at bfs-rodinia-3.1.sm_30.ptx:27 skipping new declaration
GPGPU-Sim PTX: Warning %r19 was declared previous at bfs-rodinia-3.1.sm_30.ptx:27 skipping new declaration
GPGPU-Sim PTX: Warning %r20 was declared previous at bfs-rodinia-3.1.sm_30.ptx:27 skipping new declaration
GPGPU-Sim PTX: Warning %r21 was declared previous at bfs-rodinia-3.1.sm_30.ptx:27 skipping new declaration
GPGPU-Sim PTX: Warning %r22 was declared previous at bfs-rodinia-3.1.sm_30.ptx:27 skipping new declaration
GPGPU-Sim PTX: Warning %r23 was declared previous at bfs-rodinia-3.1.sm_30.ptx:27 skipping new declaration
GPGPU-Sim PTX: Warning %r24 was declared previous at bfs-rodinia-3.1.sm_30.ptx:27 skipping new declaration
GPGPU-Sim PTX: Warning %rd0 was declared previous at bfs-rodinia-3.1.sm_30.ptx:28 skipping new declaration
GPGPU-Sim PTX: Warning %rd1 was declared previous at bfs-rodinia-3.1.sm_30.ptx:28 skipping new declaration
GPGPU-Sim PTX: Warning %rd2 was declared previous at bfs-rodinia-3.1.sm_30.ptx:28 skipping new declaration
GPGPU-Sim PTX: Warning %rd3 was declared previous at bfs-rodinia-3.1.sm_30.ptx:28 skipping new declaration
GPGPU-Sim PTX: Warning %rd4 was declared previous at bfs-rodinia-3.1.sm_30.ptx:28 skipping new declaration
GPGPU-Sim PTX: Warning %rd5 was declared previous at bfs-rodinia-3.1.sm_30.ptx:28 skipping new declaration
GPGPU-Sim PTX: Warning %rd6 was declared previous at bfs-rodinia-3.1.sm_30.ptx:28 skipping new declaration
GPGPU-Sim PTX: Warning %rd7 was declared previous at bfs-rodinia-3.1.sm_30.ptx:28 skipping new declaration
GPGPU-Sim PTX: Warning %rd8 was declared previous at bfs-rodinia-3.1.sm_30.ptx:28 skipping new declaration
GPGPU-Sim PTX: Warning %rd9 was declared previous at bfs-rodinia-3.1.sm_30.ptx:28 skipping new declaration
GPGPU-Sim PTX: Warning %rd10 was declared previous at bfs-rodinia-3.1.sm_30.ptx:28 skipping new declaration
GPGPU-Sim PTX: Warning %rd11 was declared previous at bfs-rodinia-3.1.sm_30.ptx:28 skipping new declaration
GPGPU-Sim PTX: Warning %rd12 was declared previous at bfs-rodinia-3.1.sm_30.ptx:28 skipping new declaration
GPGPU-Sim PTX: Warning %rd13 was declared previous at bfs-rodinia-3.1.sm_30.ptx:28 skipping new declaration
GPGPU-Sim PTX: Warning %rd14 was declared previous at bfs-rodinia-3.1.sm_30.ptx:28 skipping new declaration
GPGPU-Sim PTX: Warning %rd15 was declared previous at bfs-rodinia-3.1.sm_30.ptx:28 skipping new declaration
GPGPU-Sim PTX: Warning %rd16 was declared previous at bfs-rodinia-3.1.sm_30.ptx:28 skipping new declaration
GPGPU-Sim PTX: Warning %rd17 was declared previous at bfs-rodinia-3.1.sm_30.ptx:28 skipping new declaration
GPGPU-Sim PTX: Warning %rd18 was declared previous at bfs-rodinia-3.1.sm_30.ptx:28 skipping new declaration
GPGPU-Sim PTX: Warning %rd19 was declared previous at bfs-rodinia-3.1.sm_30.ptx:28 skipping new declaration
GPGPU-Sim PTX: Warning %rd20 was declared previous at bfs-rodinia-3.1.sm_30.ptx:28 skipping new declaration
GPGPU-Sim PTX: Warning %rd21 was declared previous at bfs-rodinia-3.1.sm_30.ptx:28 skipping new declaration
GPGPU-Sim PTX: Warning %rd22 was declared previous at bfs-rodinia-3.1.sm_30.ptx:28 skipping new declaration
GPGPU-Sim PTX: Warning %rd23 was declared previous at bfs-rodinia-3.1.sm_30.ptx:28 skipping new declaration
GPGPU-Sim PTX: Warning %rd24 was declared previous at bfs-rodinia-3.1.sm_30.ptx:28 skipping new declaration
GPGPU-Sim PTX: Warning %rd25 was declared previous at bfs-rodinia-3.1.sm_30.ptx:28 skipping new declaration
GPGPU-Sim PTX: Warning %rd26 was declared previous at bfs-rodinia-3.1.sm_30.ptx:28 skipping new declaration
GPGPU-Sim PTX: Warning %rd27 was declared previous at bfs-rodinia-3.1.sm_30.ptx:28 skipping new declaration
GPGPU-Sim PTX: Warning %rd28 was declared previous at bfs-rodinia-3.1.sm_30.ptx:28 skipping new declaration
GPGPU-Sim PTX: Warning %rd29 was declared previous at bfs-rodinia-3.1.sm_30.ptx:28 skipping new declaration
GPGPU-Sim PTX: Warning %rd30 was declared previous at bfs-rodinia-3.1.sm_30.ptx:28 skipping new declaration
GPGPU-Sim PTX: Warning %rd31 was declared previous at bfs-rodinia-3.1.sm_30.ptx:28 skipping new declaration
GPGPU-Sim PTX: instruction assembly for function '_Z6KernelP4NodePiPbS2_S2_S1_i'...   done.
GPGPU-Sim PTX: Warning %p0 was declared previous at bfs-rodinia-3.1.sm_30.ptx:112 skipping new declaration
GPGPU-Sim PTX: Warning %p1 was declared previous at bfs-rodinia-3.1.sm_30.ptx:112 skipping new declaration
GPGPU-Sim PTX: Warning %p2 was declared previous at bfs-rodinia-3.1.sm_30.ptx:112 skipping new declaration
GPGPU-Sim PTX: Warning %rs0 was declared previous at bfs-rodinia-3.1.sm_30.ptx:113 skipping new declaration
GPGPU-Sim PTX: Warning %rs1 was declared previous at bfs-rodinia-3.1.sm_30.ptx:113 skipping new declaration
GPGPU-Sim PTX: Warning %rs2 was declared previous at bfs-rodinia-3.1.sm_30.ptx:113 skipping new declaration
GPGPU-Sim PTX: Warning %rs3 was declared previous at bfs-rodinia-3.1.sm_30.ptx:113 skipping new declaration
GPGPU-Sim PTX: Warning %r0 was declared previous at bfs-rodinia-3.1.sm_30.ptx:114 skipping new declaration
GPGPU-Sim PTX: Warning %r1 was declared previous at bfs-rodinia-3.1.sm_30.ptx:114 skipping new declaration
GPGPU-Sim PTX: Warning %r2 was declared previous at bfs-rodinia-3.1.sm_30.ptx:114 skipping new declaration
GPGPU-Sim PTX: Warning %r3 was declared previous at bfs-rodinia-3.1.sm_30.ptx:114 skipping new declaration
GPGPU-Sim PTX: Warning %r4 was declared previous at bfs-rodinia-3.1.sm_30.ptx:114 skipping new declaration
GPGPU-Sim PTX: Warning %r5 was declared previous at bfs-rodinia-3.1.sm_30.ptx:114 skipping new declaration
GPGPU-Sim PTX: Warning %rd0 was declared previous at bfs-rodinia-3.1.sm_30.ptx:115 skipping new declaration
GPGPU-Sim PTX: Warning %rd1 was declared previous at bfs-rodinia-3.1.sm_30.ptx:115 skipping new declaration
GPGPU-Sim PTX: Warning %rd2 was declared previous at bfs-rodinia-3.1.sm_30.ptx:115 skipping new declaration
GPGPU-Sim PTX: Warning %rd3 was declared previous at bfs-rodinia-3.1.sm_30.ptx:115 skipping new declaration
GPGPU-Sim PTX: Warning %rd4 was declared previous at bfs-rodinia-3.1.sm_30.ptx:115 skipping new declaration
GPGPU-Sim PTX: Warning %rd5 was declared previous at bfs-rodinia-3.1.sm_30.ptx:115 skipping new declaration
GPGPU-Sim PTX: Warning %rd6 was declared previous at bfs-rodinia-3.1.sm_30.ptx:115 skipping new declaration
GPGPU-Sim PTX: Warning %rd7 was declared previous at bfs-rodinia-3.1.sm_30.ptx:115 skipping new declaration
GPGPU-Sim PTX: Warning %rd8 was declared previous at bfs-rodinia-3.1.sm_30.ptx:115 skipping new declaration
GPGPU-Sim PTX: Warning %rd9 was declared previous at bfs-rodinia-3.1.sm_30.ptx:115 skipping new declaration
GPGPU-Sim PTX: Warning %rd10 was declared previous at bfs-rodinia-3.1.sm_30.ptx:115 skipping new declaration
GPGPU-Sim PTX: Warning %rd11 was declared previous at bfs-rodinia-3.1.sm_30.ptx:115 skipping new declaration
GPGPU-Sim PTX: Warning %rd12 was declared previous at bfs-rodinia-3.1.sm_30.ptx:115 skipping new declaration
GPGPU-Sim PTX: Warning %rd13 was declared previous at bfs-rodinia-3.1.sm_30.ptx:115 skipping new declaration
GPGPU-Sim PTX: instruction assembly for function '_Z7Kernel2PbS_S_S_i'...   done.
GPGPU-Sim PTX: finished parsing EMBEDDED .ptx file bfs-rodinia-3.2.sm_35.ptx
GPGPU-Sim PTX: Parsing bfs-rodinia-3.3.sm_50.ptx
GPGPU-Sim PTX: Warning %p0 was declared previous at bfs-rodinia-3.1.sm_30.ptx:25 skipping new declaration
GPGPU-Sim PTX: Warning %p1 was declared previous at bfs-rodinia-3.1.sm_30.ptx:25 skipping new declaration
GPGPU-Sim PTX: Warning %p2 was declared previous at bfs-rodinia-3.1.sm_30.ptx:25 skipping new declaration
GPGPU-Sim PTX: Warning %p3 was declared previous at bfs-rodinia-3.1.sm_30.ptx:25 skipping new declaration
GPGPU-Sim PTX: Warning %p4 was declared previous at bfs-rodinia-3.1.sm_30.ptx:25 skipping new declaration
GPGPU-Sim PTX: Warning %p5 was declared previous at bfs-rodinia-3.1.sm_30.ptx:25 skipping new declaration
GPGPU-Sim PTX: Warning %rs0 was declared previous at bfs-rodinia-3.1.sm_30.ptx:26 skipping new declaration
GPGPU-Sim PTX: Warning %rs1 was declared previous at bfs-rodinia-3.1.sm_30.ptx:26 skipping new declaration
GPGPU-Sim PTX: Warning %rs2 was declared previous at bfs-rodinia-3.1.sm_30.ptx:26 skipping new declaration
GPGPU-Sim PTX: Warning %rs3 was declared previous at bfs-rodinia-3.1.sm_30.ptx:26 skipping new declaration
GPGPU-Sim PTX: Warning %rs4 was declared previous at bfs-rodinia-3.1.sm_30.ptx:26 skipping new declaration
GPGPU-Sim PTX: Warning %r0 was declared previous at bfs-rodinia-3.1.sm_30.ptx:27 skipping new declaration
GPGPU-Sim PTX: Warning %r1 was declared previous at bfs-rodinia-3.1.sm_30.ptx:27 skipping new declaration
GPGPU-Sim PTX: Warning %r2 was declared previous at bfs-rodinia-3.1.sm_30.ptx:27 skipping new declaration
GPGPU-Sim PTX: Warning %r3 was declared previous at bfs-rodinia-3.1.sm_30.ptx:27 skipping new declaration
GPGPU-Sim PTX: Warning %r4 was declared previous at bfs-rodinia-3.1.sm_30.ptx:27 skipping new declaration
GPGPU-Sim PTX: Warning %r5 was declared previous at bfs-rodinia-3.1.sm_30.ptx:27 skipping new declaration
GPGPU-Sim PTX: Warning %r6 was declared previous at bfs-rodinia-3.1.sm_30.ptx:27 skipping new declaration
GPGPU-Sim PTX: Warning %r7 was declared previous at bfs-rodinia-3.1.sm_30.ptx:27 skipping new declaration
GPGPU-Sim PTX: Warning %r8 was declared previous at bfs-rodinia-3.1.sm_30.ptx:27 skipping new declaration
GPGPU-Sim PTX: Warning %r9 was declared previous at bfs-rodinia-3.1.sm_30.ptx:27 skipping new declaration
GPGPU-Sim PTX: Warning %r10 was declared previous at bfs-rodinia-3.1.sm_30.ptx:27 skipping new declaration
GPGPU-Sim PTX: Warning %r11 was declared previous at bfs-rodinia-3.1.sm_30.ptx:27 skipping new declaration
GPGPU-Sim PTX: Warning %r12 was declared previous at bfs-rodinia-3.1.sm_30.ptx:27 skipping new declaration
GPGPU-Sim PTX: Warning %r13 was declared previous at bfs-rodinia-3.1.sm_30.ptx:27 skipping new declaration
GPGPU-Sim PTX: Warning %r14 was declared previous at bfs-rodinia-3.1.sm_30.ptx:27 skipping new declaration
GPGPU-Sim PTX: Warning %r15 was declared previous at bfs-rodinia-3.1.sm_30.ptx:27 skipping new declaration
GPGPU-Sim PTX: Warning %r16 was declared previous at bfs-rodinia-3.1.sm_30.ptx:27 skipping new declaration
GPGPU-Sim PTX: Warning %r17 was declared previous at bfs-rodinia-3.1.sm_30.ptx:27 skipping new declaration
GPGPU-Sim PTX: Warning %r18 was declared previous at bfs-rodinia-3.1.sm_30.ptx:27 skipping new declaration
GPGPU-Sim PTX: Warning %r19 was declared previous at bfs-rodinia-3.1.sm_30.ptx:27 skipping new declaration
GPGPU-Sim PTX: Warning %r20 was declared previous at bfs-rodinia-3.1.sm_30.ptx:27 skipping new declaration
GPGPU-Sim PTX: Warning %r21 was declared previous at bfs-rodinia-3.1.sm_30.ptx:27 skipping new declaration
GPGPU-Sim PTX: Warning %r22 was declared previous at bfs-rodinia-3.1.sm_30.ptx:27 skipping new declaration
GPGPU-Sim PTX: Warning %r23 was declared previous at bfs-rodinia-3.1.sm_30.ptx:27 skipping new declaration
GPGPU-Sim PTX: Warning %r24 was declared previous at bfs-rodinia-3.1.sm_30.ptx:27 skipping new declaration
GPGPU-Sim PTX: Warning %rd0 was declared previous at bfs-rodinia-3.1.sm_30.ptx:28 skipping new declaration
GPGPU-Sim PTX: Warning %rd1 was declared previous at bfs-rodinia-3.1.sm_30.ptx:28 skipping new declaration
GPGPU-Sim PTX: Warning %rd2 was declared previous at bfs-rodinia-3.1.sm_30.ptx:28 skipping new declaration
GPGPU-Sim PTX: Warning %rd3 was declared previous at bfs-rodinia-3.1.sm_30.ptx:28 skipping new declaration
GPGPU-Sim PTX: Warning %rd4 was declared previous at bfs-rodinia-3.1.sm_30.ptx:28 skipping new declaration
GPGPU-Sim PTX: Warning %rd5 was declared previous at bfs-rodinia-3.1.sm_30.ptx:28 skipping new declaration
GPGPU-Sim PTX: Warning %rd6 was declared previous at bfs-rodinia-3.1.sm_30.ptx:28 skipping new declaration
GPGPU-Sim PTX: Warning %rd7 was declared previous at bfs-rodinia-3.1.sm_30.ptx:28 skipping new declaration
GPGPU-Sim PTX: Warning %rd8 was declared previous at bfs-rodinia-3.1.sm_30.ptx:28 skipping new declaration
GPGPU-Sim PTX: Warning %rd9 was declared previous at bfs-rodinia-3.1.sm_30.ptx:28 skipping new declaration
GPGPU-Sim PTX: Warning %rd10 was declared previous at bfs-rodinia-3.1.sm_30.ptx:28 skipping new declaration
GPGPU-Sim PTX: Warning %rd11 was declared previous at bfs-rodinia-3.1.sm_30.ptx:28 skipping new declaration
GPGPU-Sim PTX: Warning %rd12 was declared previous at bfs-rodinia-3.1.sm_30.ptx:28 skipping new declaration
GPGPU-Sim PTX: Warning %rd13 was declared previous at bfs-rodinia-3.1.sm_30.ptx:28 skipping new declaration
GPGPU-Sim PTX: Warning %rd14 was declared previous at bfs-rodinia-3.1.sm_30.ptx:28 skipping new declaration
GPGPU-Sim PTX: Warning %rd15 was declared previous at bfs-rodinia-3.1.sm_30.ptx:28 skipping new declaration
GPGPU-Sim PTX: Warning %rd16 was declared previous at bfs-rodinia-3.1.sm_30.ptx:28 skipping new declaration
GPGPU-Sim PTX: Warning %rd17 was declared previous at bfs-rodinia-3.1.sm_30.ptx:28 skipping new declaration
GPGPU-Sim PTX: Warning %rd18 was declared previous at bfs-rodinia-3.1.sm_30.ptx:28 skipping new declaration
GPGPU-Sim PTX: Warning %rd19 was declared previous at bfs-rodinia-3.1.sm_30.ptx:28 skipping new declaration
GPGPU-Sim PTX: Warning %rd20 was declared previous at bfs-rodinia-3.1.sm_30.ptx:28 skipping new declaration
GPGPU-Sim PTX: Warning %rd21 was declared previous at bfs-rodinia-3.1.sm_30.ptx:28 skipping new declaration
GPGPU-Sim PTX: Warning %rd22 was declared previous at bfs-rodinia-3.1.sm_30.ptx:28 skipping new declaration
GPGPU-Sim PTX: Warning %rd23 was declared previous at bfs-rodinia-3.1.sm_30.ptx:28 skipping new declaration
GPGPU-Sim PTX: Warning %rd24 was declared previous at bfs-rodinia-3.1.sm_30.ptx:28 skipping new declaration
GPGPU-Sim PTX: Warning %rd25 was declared previous at bfs-rodinia-3.1.sm_30.ptx:28 skipping new declaration
GPGPU-Sim PTX: Warning %rd26 was declared previous at bfs-rodinia-3.1.sm_30.ptx:28 skipping new declaration
GPGPU-Sim PTX: Warning %rd27 was declared previous at bfs-rodinia-3.1.sm_30.ptx:28 skipping new declaration
GPGPU-Sim PTX: Warning %rd28 was declared previous at bfs-rodinia-3.1.sm_30.ptx:28 skipping new declaration
GPGPU-Sim PTX: Warning %rd29 was declared previous at bfs-rodinia-3.1.sm_30.ptx:28 skipping new declaration
GPGPU-Sim PTX: Warning %rd30 was declared previous at bfs-rodinia-3.1.sm_30.ptx:28 skipping new declaration
GPGPU-Sim PTX: Warning %rd31 was declared previous at bfs-rodinia-3.1.sm_30.ptx:28 skipping new declaration
GPGPU-Sim PTX: instruction assembly for function '_Z6KernelP4NodePiPbS2_S2_S1_i'...   done.
GPGPU-Sim PTX: Warning %p0 was declared previous at bfs-rodinia-3.1.sm_30.ptx:112 skipping new declaration
GPGPU-Sim PTX: Warning %p1 was declared previous at bfs-rodinia-3.1.sm_30.ptx:112 skipping new declaration
GPGPU-Sim PTX: Warning %p2 was declared previous at bfs-rodinia-3.1.sm_30.ptx:112 skipping new declaration
GPGPU-Sim PTX: Warning %rs0 was declared previous at bfs-rodinia-3.1.sm_30.ptx:113 skipping new declaration
GPGPU-Sim PTX: Warning %rs1 was declared previous at bfs-rodinia-3.1.sm_30.ptx:113 skipping new declaration
GPGPU-Sim PTX: Warning %rs2 was declared previous at bfs-rodinia-3.1.sm_30.ptx:113 skipping new declaration
GPGPU-Sim PTX: Warning %rs3 was declared previous at bfs-rodinia-3.1.sm_30.ptx:113 skipping new declaration
GPGPU-Sim PTX: Warning %r0 was declared previous at bfs-rodinia-3.1.sm_30.ptx:114 skipping new declaration
GPGPU-Sim PTX: Warning %r1 was declared previous at bfs-rodinia-3.1.sm_30.ptx:114 skipping new declaration
GPGPU-Sim PTX: Warning %r2 was declared previous at bfs-rodinia-3.1.sm_30.ptx:114 skipping new declaration
GPGPU-Sim PTX: Warning %r3 was declared previous at bfs-rodinia-3.1.sm_30.ptx:114 skipping new declaration
GPGPU-Sim PTX: Warning %r4 was declared previous at bfs-rodinia-3.1.sm_30.ptx:114 skipping new declaration
GPGPU-Sim PTX: Warning %r5 was declared previous at bfs-rodinia-3.1.sm_30.ptx:114 skipping new declaration
GPGPU-Sim PTX: Warning %rd0 was declared previous at bfs-rodinia-3.1.sm_30.ptx:115 skipping new declaration
GPGPU-Sim PTX: Warning %rd1 was declared previous at bfs-rodinia-3.1.sm_30.ptx:115 skipping new declaration
GPGPU-Sim PTX: Warning %rd2 was declared previous at bfs-rodinia-3.1.sm_30.ptx:115 skipping new declaration
GPGPU-Sim PTX: Warning %rd3 was declared previous at bfs-rodinia-3.1.sm_30.ptx:115 skipping new declaration
GPGPU-Sim PTX: Warning %rd4 was declared previous at bfs-rodinia-3.1.sm_30.ptx:115 skipping new declaration
GPGPU-Sim PTX: Warning %rd5 was declared previous at bfs-rodinia-3.1.sm_30.ptx:115 skipping new declaration
GPGPU-Sim PTX: Warning %rd6 was declared previous at bfs-rodinia-3.1.sm_30.ptx:115 skipping new declaration
GPGPU-Sim PTX: Warning %rd7 was declared previous at bfs-rodinia-3.1.sm_30.ptx:115 skipping new declaration
GPGPU-Sim PTX: Warning %rd8 was declared previous at bfs-rodinia-3.1.sm_30.ptx:115 skipping new declaration
GPGPU-Sim PTX: Warning %rd9 was declared previous at bfs-rodinia-3.1.sm_30.ptx:115 skipping new declaration
GPGPU-Sim PTX: Warning %rd10 was declared previous at bfs-rodinia-3.1.sm_30.ptx:115 skipping new declaration
GPGPU-Sim PTX: Warning %rd11 was declared previous at bfs-rodinia-3.1.sm_30.ptx:115 skipping new declaration
GPGPU-Sim PTX: Warning %rd12 was declared previous at bfs-rodinia-3.1.sm_30.ptx:115 skipping new declaration
GPGPU-Sim PTX: Warning %rd13 was declared previous at bfs-rodinia-3.1.sm_30.ptx:115 skipping new declaration
GPGPU-Sim PTX: instruction assembly for function '_Z7Kernel2PbS_S_S_i'...   done.
GPGPU-Sim PTX: finished parsing EMBEDDED .ptx file bfs-rodinia-3.3.sm_50.ptx
GPGPU-Sim PTX: Parsing bfs-rodinia-3.4.sm_60.ptx
GPGPU-Sim PTX: Warning %p0 was declared previous at bfs-rodinia-3.1.sm_30.ptx:25 skipping new declaration
GPGPU-Sim PTX: Warning %p1 was declared previous at bfs-rodinia-3.1.sm_30.ptx:25 skipping new declaration
GPGPU-Sim PTX: Warning %p2 was declared previous at bfs-rodinia-3.1.sm_30.ptx:25 skipping new declaration
GPGPU-Sim PTX: Warning %p3 was declared previous at bfs-rodinia-3.1.sm_30.ptx:25 skipping new declaration
GPGPU-Sim PTX: Warning %p4 was declared previous at bfs-rodinia-3.1.sm_30.ptx:25 skipping new declaration
GPGPU-Sim PTX: Warning %p5 was declared previous at bfs-rodinia-3.1.sm_30.ptx:25 skipping new declaration
GPGPU-Sim PTX: Warning %rs0 was declared previous at bfs-rodinia-3.1.sm_30.ptx:26 skipping new declaration
GPGPU-Sim PTX: Warning %rs1 was declared previous at bfs-rodinia-3.1.sm_30.ptx:26 skipping new declaration
GPGPU-Sim PTX: Warning %rs2 was declared previous at bfs-rodinia-3.1.sm_30.ptx:26 skipping new declaration
GPGPU-Sim PTX: Warning %rs3 was declared previous at bfs-rodinia-3.1.sm_30.ptx:26 skipping new declaration
GPGPU-Sim PTX: Warning %rs4 was declared previous at bfs-rodinia-3.1.sm_30.ptx:26 skipping new declaration
GPGPU-Sim PTX: Warning %r0 was declared previous at bfs-rodinia-3.1.sm_30.ptx:27 skipping new declaration
GPGPU-Sim PTX: Warning %r1 was declared previous at bfs-rodinia-3.1.sm_30.ptx:27 skipping new declaration
GPGPU-Sim PTX: Warning %r2 was declared previous at bfs-rodinia-3.1.sm_30.ptx:27 skipping new declaration
GPGPU-Sim PTX: Warning %r3 was declared previous at bfs-rodinia-3.1.sm_30.ptx:27 skipping new declaration
GPGPU-Sim PTX: Warning %r4 was declared previous at bfs-rodinia-3.1.sm_30.ptx:27 skipping new declaration
GPGPU-Sim PTX: Warning %r5 was declared previous at bfs-rodinia-3.1.sm_30.ptx:27 skipping new declaration
GPGPU-Sim PTX: Warning %r6 was declared previous at bfs-rodinia-3.1.sm_30.ptx:27 skipping new declaration
GPGPU-Sim PTX: Warning %r7 was declared previous at bfs-rodinia-3.1.sm_30.ptx:27 skipping new declaration
GPGPU-Sim PTX: Warning %r8 was declared previous at bfs-rodinia-3.1.sm_30.ptx:27 skipping new declaration
GPGPU-Sim PTX: Warning %r9 was declared previous at bfs-rodinia-3.1.sm_30.ptx:27 skipping new declaration
GPGPU-Sim PTX: Warning %r10 was declared previous at bfs-rodinia-3.1.sm_30.ptx:27 skipping new declaration
GPGPU-Sim PTX: Warning %r11 was declared previous at bfs-rodinia-3.1.sm_30.ptx:27 skipping new declaration
GPGPU-Sim PTX: Warning %r12 was declared previous at bfs-rodinia-3.1.sm_30.ptx:27 skipping new declaration
GPGPU-Sim PTX: Warning %r13 was declared previous at bfs-rodinia-3.1.sm_30.ptx:27 skipping new declaration
GPGPU-Sim PTX: Warning %r14 was declared previous at bfs-rodinia-3.1.sm_30.ptx:27 skipping new declaration
GPGPU-Sim PTX: Warning %r15 was declared previous at bfs-rodinia-3.1.sm_30.ptx:27 skipping new declaration
GPGPU-Sim PTX: Warning %r16 was declared previous at bfs-rodinia-3.1.sm_30.ptx:27 skipping new declaration
GPGPU-Sim PTX: Warning %r17 was declared previous at bfs-rodinia-3.1.sm_30.ptx:27 skipping new declaration
GPGPU-Sim PTX: Warning %r18 was declared previous at bfs-rodinia-3.1.sm_30.ptx:27 skipping new declaration
GPGPU-Sim PTX: Warning %r19 was declared previous at bfs-rodinia-3.1.sm_30.ptx:27 skipping new declaration
GPGPU-Sim PTX: Warning %r20 was declared previous at bfs-rodinia-3.1.sm_30.ptx:27 skipping new declaration
GPGPU-Sim PTX: Warning %r21 was declared previous at bfs-rodinia-3.1.sm_30.ptx:27 skipping new declaration
GPGPU-Sim PTX: Warning %r22 was declared previous at bfs-rodinia-3.1.sm_30.ptx:27 skipping new declaration
GPGPU-Sim PTX: Warning %r23 was declared previous at bfs-rodinia-3.1.sm_30.ptx:27 skipping new declaration
GPGPU-Sim PTX: Warning %r24 was declared previous at bfs-rodinia-3.1.sm_30.ptx:27 skipping new declaration
GPGPU-Sim PTX: Warning %rd0 was declared previous at bfs-rodinia-3.1.sm_30.ptx:28 skipping new declaration
GPGPU-Sim PTX: Warning %rd1 was declared previous at bfs-rodinia-3.1.sm_30.ptx:28 skipping new declaration
GPGPU-Sim PTX: Warning %rd2 was declared previous at bfs-rodinia-3.1.sm_30.ptx:28 skipping new declaration
GPGPU-Sim PTX: Warning %rd3 was declared previous at bfs-rodinia-3.1.sm_30.ptx:28 skipping new declaration
GPGPU-Sim PTX: Warning %rd4 was declared previous at bfs-rodinia-3.1.sm_30.ptx:28 skipping new declaration
GPGPU-Sim PTX: Warning %rd5 was declared previous at bfs-rodinia-3.1.sm_30.ptx:28 skipping new declaration
GPGPU-Sim PTX: Warning %rd6 was declared previous at bfs-rodinia-3.1.sm_30.ptx:28 skipping new declaration
GPGPU-Sim PTX: Warning %rd7 was declared previous at bfs-rodinia-3.1.sm_30.ptx:28 skipping new declaration
GPGPU-Sim PTX: Warning %rd8 was declared previous at bfs-rodinia-3.1.sm_30.ptx:28 skipping new declaration
GPGPU-Sim PTX: Warning %rd9 was declared previous at bfs-rodinia-3.1.sm_30.ptx:28 skipping new declaration
GPGPU-Sim PTX: Warning %rd10 was declared previous at bfs-rodinia-3.1.sm_30.ptx:28 skipping new declaration
GPGPU-Sim PTX: Warning %rd11 was declared previous at bfs-rodinia-3.1.sm_30.ptx:28 skipping new declaration
GPGPU-Sim PTX: Warning %rd12 was declared previous at bfs-rodinia-3.1.sm_30.ptx:28 skipping new declaration
GPGPU-Sim PTX: Warning %rd13 was declared previous at bfs-rodinia-3.1.sm_30.ptx:28 skipping new declaration
GPGPU-Sim PTX: Warning %rd14 was declared previous at bfs-rodinia-3.1.sm_30.ptx:28 skipping new declaration
GPGPU-Sim PTX: Warning %rd15 was declared previous at bfs-rodinia-3.1.sm_30.ptx:28 skipping new declaration
GPGPU-Sim PTX: Warning %rd16 was declared previous at bfs-rodinia-3.1.sm_30.ptx:28 skipping new declaration
GPGPU-Sim PTX: Warning %rd17 was declared previous at bfs-rodinia-3.1.sm_30.ptx:28 skipping new declaration
GPGPU-Sim PTX: Warning %rd18 was declared previous at bfs-rodinia-3.1.sm_30.ptx:28 skipping new declaration
GPGPU-Sim PTX: Warning %rd19 was declared previous at bfs-rodinia-3.1.sm_30.ptx:28 skipping new declaration
GPGPU-Sim PTX: Warning %rd20 was declared previous at bfs-rodinia-3.1.sm_30.ptx:28 skipping new declaration
GPGPU-Sim PTX: Warning %rd21 was declared previous at bfs-rodinia-3.1.sm_30.ptx:28 skipping new declaration
GPGPU-Sim PTX: Warning %rd22 was declared previous at bfs-rodinia-3.1.sm_30.ptx:28 skipping new declaration
GPGPU-Sim PTX: Warning %rd23 was declared previous at bfs-rodinia-3.1.sm_30.ptx:28 skipping new declaration
GPGPU-Sim PTX: Warning %rd24 was declared previous at bfs-rodinia-3.1.sm_30.ptx:28 skipping new declaration
GPGPU-Sim PTX: Warning %rd25 was declared previous at bfs-rodinia-3.1.sm_30.ptx:28 skipping new declaration
GPGPU-Sim PTX: Warning %rd26 was declared previous at bfs-rodinia-3.1.sm_30.ptx:28 skipping new declaration
GPGPU-Sim PTX: Warning %rd27 was declared previous at bfs-rodinia-3.1.sm_30.ptx:28 skipping new declaration
GPGPU-Sim PTX: Warning %rd28 was declared previous at bfs-rodinia-3.1.sm_30.ptx:28 skipping new declaration
GPGPU-Sim PTX: Warning %rd29 was declared previous at bfs-rodinia-3.1.sm_30.ptx:28 skipping new declaration
GPGPU-Sim PTX: Warning %rd30 was declared previous at bfs-rodinia-3.1.sm_30.ptx:28 skipping new declaration
GPGPU-Sim PTX: Warning %rd31 was declared previous at bfs-rodinia-3.1.sm_30.ptx:28 skipping new declaration
GPGPU-Sim PTX: instruction assembly for function '_Z6KernelP4NodePiPbS2_S2_S1_i'...   done.
GPGPU-Sim PTX: Warning %p0 was declared previous at bfs-rodinia-3.1.sm_30.ptx:112 skipping new declaration
GPGPU-Sim PTX: Warning %p1 was declared previous at bfs-rodinia-3.1.sm_30.ptx:112 skipping new declaration
GPGPU-Sim PTX: Warning %p2 was declared previous at bfs-rodinia-3.1.sm_30.ptx:112 skipping new declaration
GPGPU-Sim PTX: Warning %rs0 was declared previous at bfs-rodinia-3.1.sm_30.ptx:113 skipping new declaration
GPGPU-Sim PTX: Warning %rs1 was declared previous at bfs-rodinia-3.1.sm_30.ptx:113 skipping new declaration
GPGPU-Sim PTX: Warning %rs2 was declared previous at bfs-rodinia-3.1.sm_30.ptx:113 skipping new declaration
GPGPU-Sim PTX: Warning %rs3 was declared previous at bfs-rodinia-3.1.sm_30.ptx:113 skipping new declaration
GPGPU-Sim PTX: Warning %r0 was declared previous at bfs-rodinia-3.1.sm_30.ptx:114 skipping new declaration
GPGPU-Sim PTX: Warning %r1 was declared previous at bfs-rodinia-3.1.sm_30.ptx:114 skipping new declaration
GPGPU-Sim PTX: Warning %r2 was declared previous at bfs-rodinia-3.1.sm_30.ptx:114 skipping new declaration
GPGPU-Sim PTX: Warning %r3 was declared previous at bfs-rodinia-3.1.sm_30.ptx:114 skipping new declaration
GPGPU-Sim PTX: Warning %r4 was declared previous at bfs-rodinia-3.1.sm_30.ptx:114 skipping new declaration
GPGPU-Sim PTX: Warning %r5 was declared previous at bfs-rodinia-3.1.sm_30.ptx:114 skipping new declaration
GPGPU-Sim PTX: Warning %rd0 was declared previous at bfs-rodinia-3.1.sm_30.ptx:115 skipping new declaration
GPGPU-Sim PTX: Warning %rd1 was declared previous at bfs-rodinia-3.1.sm_30.ptx:115 skipping new declaration
GPGPU-Sim PTX: Warning %rd2 was declared previous at bfs-rodinia-3.1.sm_30.ptx:115 skipping new declaration
GPGPU-Sim PTX: Warning %rd3 was declared previous at bfs-rodinia-3.1.sm_30.ptx:115 skipping new declaration
GPGPU-Sim PTX: Warning %rd4 was declared previous at bfs-rodinia-3.1.sm_30.ptx:115 skipping new declaration
GPGPU-Sim PTX: Warning %rd5 was declared previous at bfs-rodinia-3.1.sm_30.ptx:115 skipping new declaration
GPGPU-Sim PTX: Warning %rd6 was declared previous at bfs-rodinia-3.1.sm_30.ptx:115 skipping new declaration
GPGPU-Sim PTX: Warning %rd7 was declared previous at bfs-rodinia-3.1.sm_30.ptx:115 skipping new declaration
GPGPU-Sim PTX: Warning %rd8 was declared previous at bfs-rodinia-3.1.sm_30.ptx:115 skipping new declaration
GPGPU-Sim PTX: Warning %rd9 was declared previous at bfs-rodinia-3.1.sm_30.ptx:115 skipping new declaration
GPGPU-Sim PTX: Warning %rd10 was declared previous at bfs-rodinia-3.1.sm_30.ptx:115 skipping new declaration
GPGPU-Sim PTX: Warning %rd11 was declared previous at bfs-rodinia-3.1.sm_30.ptx:115 skipping new declaration
GPGPU-Sim PTX: Warning %rd12 was declared previous at bfs-rodinia-3.1.sm_30.ptx:115 skipping new declaration
GPGPU-Sim PTX: Warning %rd13 was declared previous at bfs-rodinia-3.1.sm_30.ptx:115 skipping new declaration
GPGPU-Sim PTX: instruction assembly for function '_Z7Kernel2PbS_S_S_i'...   done.
GPGPU-Sim PTX: finished parsing EMBEDDED .ptx file bfs-rodinia-3.4.sm_60.ptx
GPGPU-Sim PTX: Parsing bfs-rodinia-3.5.sm_62.ptx
GPGPU-Sim PTX: Warning %p0 was declared previous at bfs-rodinia-3.1.sm_30.ptx:25 skipping new declaration
GPGPU-Sim PTX: Warning %p1 was declared previous at bfs-rodinia-3.1.sm_30.ptx:25 skipping new declaration
GPGPU-Sim PTX: Warning %p2 was declared previous at bfs-rodinia-3.1.sm_30.ptx:25 skipping new declaration
GPGPU-Sim PTX: Warning %p3 was declared previous at bfs-rodinia-3.1.sm_30.ptx:25 skipping new declaration
GPGPU-Sim PTX: Warning %p4 was declared previous at bfs-rodinia-3.1.sm_30.ptx:25 skipping new declaration
GPGPU-Sim PTX: Warning %p5 was declared previous at bfs-rodinia-3.1.sm_30.ptx:25 skipping new declaration
GPGPU-Sim PTX: Warning %rs0 was declared previous at bfs-rodinia-3.1.sm_30.ptx:26 skipping new declaration
GPGPU-Sim PTX: Warning %rs1 was declared previous at bfs-rodinia-3.1.sm_30.ptx:26 skipping new declaration
GPGPU-Sim PTX: Warning %rs2 was declared previous at bfs-rodinia-3.1.sm_30.ptx:26 skipping new declaration
GPGPU-Sim PTX: Warning %rs3 was declared previous at bfs-rodinia-3.1.sm_30.ptx:26 skipping new declaration
GPGPU-Sim PTX: Warning %rs4 was declared previous at bfs-rodinia-3.1.sm_30.ptx:26 skipping new declaration
GPGPU-Sim PTX: Warning %r0 was declared previous at bfs-rodinia-3.1.sm_30.ptx:27 skipping new declaration
GPGPU-Sim PTX: Warning %r1 was declared previous at bfs-rodinia-3.1.sm_30.ptx:27 skipping new declaration
GPGPU-Sim PTX: Warning %r2 was declared previous at bfs-rodinia-3.1.sm_30.ptx:27 skipping new declaration
GPGPU-Sim PTX: Warning %r3 was declared previous at bfs-rodinia-3.1.sm_30.ptx:27 skipping new declaration
GPGPU-Sim PTX: Warning %r4 was declared previous at bfs-rodinia-3.1.sm_30.ptx:27 skipping new declaration
GPGPU-Sim PTX: Warning %r5 was declared previous at bfs-rodinia-3.1.sm_30.ptx:27 skipping new declaration
GPGPU-Sim PTX: Warning %r6 was declared previous at bfs-rodinia-3.1.sm_30.ptx:27 skipping new declaration
GPGPU-Sim PTX: Warning %r7 was declared previous at bfs-rodinia-3.1.sm_30.ptx:27 skipping new declaration
GPGPU-Sim PTX: Warning %r8 was declared previous at bfs-rodinia-3.1.sm_30.ptx:27 skipping new declaration
GPGPU-Sim PTX: Warning %r9 was declared previous at bfs-rodinia-3.1.sm_30.ptx:27 skipping new declaration
GPGPU-Sim PTX: Warning %r10 was declared previous at bfs-rodinia-3.1.sm_30.ptx:27 skipping new declaration
GPGPU-Sim PTX: Warning %r11 was declared previous at bfs-rodinia-3.1.sm_30.ptx:27 skipping new declaration
GPGPU-Sim PTX: Warning %r12 was declared previous at bfs-rodinia-3.1.sm_30.ptx:27 skipping new declaration
GPGPU-Sim PTX: Warning %r13 was declared previous at bfs-rodinia-3.1.sm_30.ptx:27 skipping new declaration
GPGPU-Sim PTX: Warning %r14 was declared previous at bfs-rodinia-3.1.sm_30.ptx:27 skipping new declaration
GPGPU-Sim PTX: Warning %r15 was declared previous at bfs-rodinia-3.1.sm_30.ptx:27 skipping new declaration
GPGPU-Sim PTX: Warning %r16 was declared previous at bfs-rodinia-3.1.sm_30.ptx:27 skipping new declaration
GPGPU-Sim PTX: Warning %r17 was declared previous at bfs-rodinia-3.1.sm_30.ptx:27 skipping new declaration
GPGPU-Sim PTX: Warning %r18 was declared previous at bfs-rodinia-3.1.sm_30.ptx:27 skipping new declaration
GPGPU-Sim PTX: Warning %r19 was declared previous at bfs-rodinia-3.1.sm_30.ptx:27 skipping new declaration
GPGPU-Sim PTX: Warning %r20 was declared previous at bfs-rodinia-3.1.sm_30.ptx:27 skipping new declaration
GPGPU-Sim PTX: Warning %r21 was declared previous at bfs-rodinia-3.1.sm_30.ptx:27 skipping new declaration
GPGPU-Sim PTX: Warning %r22 was declared previous at bfs-rodinia-3.1.sm_30.ptx:27 skipping new declaration
GPGPU-Sim PTX: Warning %r23 was declared previous at bfs-rodinia-3.1.sm_30.ptx:27 skipping new declaration
GPGPU-Sim PTX: Warning %r24 was declared previous at bfs-rodinia-3.1.sm_30.ptx:27 skipping new declaration
GPGPU-Sim PTX: Warning %rd0 was declared previous at bfs-rodinia-3.1.sm_30.ptx:28 skipping new declaration
GPGPU-Sim PTX: Warning %rd1 was declared previous at bfs-rodinia-3.1.sm_30.ptx:28 skipping new declaration
GPGPU-Sim PTX: Warning %rd2 was declared previous at bfs-rodinia-3.1.sm_30.ptx:28 skipping new declaration
GPGPU-Sim PTX: Warning %rd3 was declared previous at bfs-rodinia-3.1.sm_30.ptx:28 skipping new declaration
GPGPU-Sim PTX: Warning %rd4 was declared previous at bfs-rodinia-3.1.sm_30.ptx:28 skipping new declaration
GPGPU-Sim PTX: Warning %rd5 was declared previous at bfs-rodinia-3.1.sm_30.ptx:28 skipping new declaration
GPGPU-Sim PTX: Warning %rd6 was declared previous at bfs-rodinia-3.1.sm_30.ptx:28 skipping new declaration
GPGPU-Sim PTX: Warning %rd7 was declared previous at bfs-rodinia-3.1.sm_30.ptx:28 skipping new declaration
GPGPU-Sim PTX: Warning %rd8 was declared previous at bfs-rodinia-3.1.sm_30.ptx:28 skipping new declaration
GPGPU-Sim PTX: Warning %rd9 was declared previous at bfs-rodinia-3.1.sm_30.ptx:28 skipping new declaration
GPGPU-Sim PTX: Warning %rd10 was declared previous at bfs-rodinia-3.1.sm_30.ptx:28 skipping new declaration
GPGPU-Sim PTX: Warning %rd11 was declared previous at bfs-rodinia-3.1.sm_30.ptx:28 skipping new declaration
GPGPU-Sim PTX: Warning %rd12 was declared previous at bfs-rodinia-3.1.sm_30.ptx:28 skipping new declaration
GPGPU-Sim PTX: Warning %rd13 was declared previous at bfs-rodinia-3.1.sm_30.ptx:28 skipping new declaration
GPGPU-Sim PTX: Warning %rd14 was declared previous at bfs-rodinia-3.1.sm_30.ptx:28 skipping new declaration
GPGPU-Sim PTX: Warning %rd15 was declared previous at bfs-rodinia-3.1.sm_30.ptx:28 skipping new declaration
GPGPU-Sim PTX: Warning %rd16 was declared previous at bfs-rodinia-3.1.sm_30.ptx:28 skipping new declaration
GPGPU-Sim PTX: Warning %rd17 was declared previous at bfs-rodinia-3.1.sm_30.ptx:28 skipping new declaration
GPGPU-Sim PTX: Warning %rd18 was declared previous at bfs-rodinia-3.1.sm_30.ptx:28 skipping new declaration
GPGPU-Sim PTX: Warning %rd19 was declared previous at bfs-rodinia-3.1.sm_30.ptx:28 skipping new declaration
GPGPU-Sim PTX: Warning %rd20 was declared previous at bfs-rodinia-3.1.sm_30.ptx:28 skipping new declaration
GPGPU-Sim PTX: Warning %rd21 was declared previous at bfs-rodinia-3.1.sm_30.ptx:28 skipping new declaration
GPGPU-Sim PTX: Warning %rd22 was declared previous at bfs-rodinia-3.1.sm_30.ptx:28 skipping new declaration
GPGPU-Sim PTX: Warning %rd23 was declared previous at bfs-rodinia-3.1.sm_30.ptx:28 skipping new declaration
GPGPU-Sim PTX: Warning %rd24 was declared previous at bfs-rodinia-3.1.sm_30.ptx:28 skipping new declaration
GPGPU-Sim PTX: Warning %rd25 was declared previous at bfs-rodinia-3.1.sm_30.ptx:28 skipping new declaration
GPGPU-Sim PTX: Warning %rd26 was declared previous at bfs-rodinia-3.1.sm_30.ptx:28 skipping new declaration
GPGPU-Sim PTX: Warning %rd27 was declared previous at bfs-rodinia-3.1.sm_30.ptx:28 skipping new declaration
GPGPU-Sim PTX: Warning %rd28 was declared previous at bfs-rodinia-3.1.sm_30.ptx:28 skipping new declaration
GPGPU-Sim PTX: Warning %rd29 was declared previous at bfs-rodinia-3.1.sm_30.ptx:28 skipping new declaration
GPGPU-Sim PTX: Warning %rd30 was declared previous at bfs-rodinia-3.1.sm_30.ptx:28 skipping new declaration
GPGPU-Sim PTX: Warning %rd31 was declared previous at bfs-rodinia-3.1.sm_30.ptx:28 skipping new declaration
GPGPU-Sim PTX: instruction assembly for function '_Z6KernelP4NodePiPbS2_S2_S1_i'...   done.
GPGPU-Sim PTX: Warning %p0 was declared previous at bfs-rodinia-3.1.sm_30.ptx:112 skipping new declaration
GPGPU-Sim PTX: Warning %p1 was declared previous at bfs-rodinia-3.1.sm_30.ptx:112 skipping new declaration
GPGPU-Sim PTX: Warning %p2 was declared previous at bfs-rodinia-3.1.sm_30.ptx:112 skipping new declaration
GPGPU-Sim PTX: Warning %rs0 was declared previous at bfs-rodinia-3.1.sm_30.ptx:113 skipping new declaration
GPGPU-Sim PTX: Warning %rs1 was declared previous at bfs-rodinia-3.1.sm_30.ptx:113 skipping new declaration
GPGPU-Sim PTX: Warning %rs2 was declared previous at bfs-rodinia-3.1.sm_30.ptx:113 skipping new declaration
GPGPU-Sim PTX: Warning %rs3 was declared previous at bfs-rodinia-3.1.sm_30.ptx:113 skipping new declaration
GPGPU-Sim PTX: Warning %r0 was declared previous at bfs-rodinia-3.1.sm_30.ptx:114 skipping new declaration
GPGPU-Sim PTX: Warning %r1 was declared previous at bfs-rodinia-3.1.sm_30.ptx:114 skipping new declaration
GPGPU-Sim PTX: Warning %r2 was declared previous at bfs-rodinia-3.1.sm_30.ptx:114 skipping new declaration
GPGPU-Sim PTX: Warning %r3 was declared previous at bfs-rodinia-3.1.sm_30.ptx:114 skipping new declaration
GPGPU-Sim PTX: Warning %r4 was declared previous at bfs-rodinia-3.1.sm_30.ptx:114 skipping new declaration
GPGPU-Sim PTX: Warning %r5 was declared previous at bfs-rodinia-3.1.sm_30.ptx:114 skipping new declaration
GPGPU-Sim PTX: Warning %rd0 was declared previous at bfs-rodinia-3.1.sm_30.ptx:115 skipping new declaration
GPGPU-Sim PTX: Warning %rd1 was declared previous at bfs-rodinia-3.1.sm_30.ptx:115 skipping new declaration
GPGPU-Sim PTX: Warning %rd2 was declared previous at bfs-rodinia-3.1.sm_30.ptx:115 skipping new declaration
GPGPU-Sim PTX: Warning %rd3 was declared previous at bfs-rodinia-3.1.sm_30.ptx:115 skipping new declaration
GPGPU-Sim PTX: Warning %rd4 was declared previous at bfs-rodinia-3.1.sm_30.ptx:115 skipping new declaration
GPGPU-Sim PTX: Warning %rd5 was declared previous at bfs-rodinia-3.1.sm_30.ptx:115 skipping new declaration
GPGPU-Sim PTX: Warning %rd6 was declared previous at bfs-rodinia-3.1.sm_30.ptx:115 skipping new declaration
GPGPU-Sim PTX: Warning %rd7 was declared previous at bfs-rodinia-3.1.sm_30.ptx:115 skipping new declaration
GPGPU-Sim PTX: Warning %rd8 was declared previous at bfs-rodinia-3.1.sm_30.ptx:115 skipping new declaration
GPGPU-Sim PTX: Warning %rd9 was declared previous at bfs-rodinia-3.1.sm_30.ptx:115 skipping new declaration
GPGPU-Sim PTX: Warning %rd10 was declared previous at bfs-rodinia-3.1.sm_30.ptx:115 skipping new declaration
GPGPU-Sim PTX: Warning %rd11 was declared previous at bfs-rodinia-3.1.sm_30.ptx:115 skipping new declaration
GPGPU-Sim PTX: Warning %rd12 was declared previous at bfs-rodinia-3.1.sm_30.ptx:115 skipping new declaration
GPGPU-Sim PTX: Warning %rd13 was declared previous at bfs-rodinia-3.1.sm_30.ptx:115 skipping new declaration
GPGPU-Sim PTX: instruction assembly for function '_Z7Kernel2PbS_S_S_i'...   done.
GPGPU-Sim PTX: finished parsing EMBEDDED .ptx file bfs-rodinia-3.5.sm_62.ptx
GPGPU-Sim PTX: Parsing bfs-rodinia-3.6.sm_70.ptx
GPGPU-Sim PTX: Warning %p0 was declared previous at bfs-rodinia-3.1.sm_30.ptx:25 skipping new declaration
GPGPU-Sim PTX: Warning %p1 was declared previous at bfs-rodinia-3.1.sm_30.ptx:25 skipping new declaration
GPGPU-Sim PTX: Warning %p2 was declared previous at bfs-rodinia-3.1.sm_30.ptx:25 skipping new declaration
GPGPU-Sim PTX: Warning %p3 was declared previous at bfs-rodinia-3.1.sm_30.ptx:25 skipping new declaration
GPGPU-Sim PTX: Warning %p4 was declared previous at bfs-rodinia-3.1.sm_30.ptx:25 skipping new declaration
GPGPU-Sim PTX: Warning %p5 was declared previous at bfs-rodinia-3.1.sm_30.ptx:25 skipping new declaration
GPGPU-Sim PTX: Warning %rs0 was declared previous at bfs-rodinia-3.1.sm_30.ptx:26 skipping new declaration
GPGPU-Sim PTX: Warning %rs1 was declared previous at bfs-rodinia-3.1.sm_30.ptx:26 skipping new declaration
GPGPU-Sim PTX: Warning %rs2 was declared previous at bfs-rodinia-3.1.sm_30.ptx:26 skipping new declaration
GPGPU-Sim PTX: Warning %rs3 was declared previous at bfs-rodinia-3.1.sm_30.ptx:26 skipping new declaration
GPGPU-Sim PTX: Warning %rs4 was declared previous at bfs-rodinia-3.1.sm_30.ptx:26 skipping new declaration
GPGPU-Sim PTX: Warning %r0 was declared previous at bfs-rodinia-3.1.sm_30.ptx:27 skipping new declaration
GPGPU-Sim PTX: Warning %r1 was declared previous at bfs-rodinia-3.1.sm_30.ptx:27 skipping new declaration
GPGPU-Sim PTX: Warning %r2 was declared previous at bfs-rodinia-3.1.sm_30.ptx:27 skipping new declaration
GPGPU-Sim PTX: Warning %r3 was declared previous at bfs-rodinia-3.1.sm_30.ptx:27 skipping new declaration
GPGPU-Sim PTX: Warning %r4 was declared previous at bfs-rodinia-3.1.sm_30.ptx:27 skipping new declaration
GPGPU-Sim PTX: Warning %r5 was declared previous at bfs-rodinia-3.1.sm_30.ptx:27 skipping new declaration
GPGPU-Sim PTX: Warning %r6 was declared previous at bfs-rodinia-3.1.sm_30.ptx:27 skipping new declaration
GPGPU-Sim PTX: Warning %r7 was declared previous at bfs-rodinia-3.1.sm_30.ptx:27 skipping new declaration
GPGPU-Sim PTX: Warning %r8 was declared previous at bfs-rodinia-3.1.sm_30.ptx:27 skipping new declaration
GPGPU-Sim PTX: Warning %r9 was declared previous at bfs-rodinia-3.1.sm_30.ptx:27 skipping new declaration
GPGPU-Sim PTX: Warning %r10 was declared previous at bfs-rodinia-3.1.sm_30.ptx:27 skipping new declaration
GPGPU-Sim PTX: Warning %r11 was declared previous at bfs-rodinia-3.1.sm_30.ptx:27 skipping new declaration
GPGPU-Sim PTX: Warning %r12 was declared previous at bfs-rodinia-3.1.sm_30.ptx:27 skipping new declaration
GPGPU-Sim PTX: Warning %r13 was declared previous at bfs-rodinia-3.1.sm_30.ptx:27 skipping new declaration
GPGPU-Sim PTX: Warning %r14 was declared previous at bfs-rodinia-3.1.sm_30.ptx:27 skipping new declaration
GPGPU-Sim PTX: Warning %r15 was declared previous at bfs-rodinia-3.1.sm_30.ptx:27 skipping new declaration
GPGPU-Sim PTX: Warning %r16 was declared previous at bfs-rodinia-3.1.sm_30.ptx:27 skipping new declaration
GPGPU-Sim PTX: Warning %r17 was declared previous at bfs-rodinia-3.1.sm_30.ptx:27 skipping new declaration
GPGPU-Sim PTX: Warning %r18 was declared previous at bfs-rodinia-3.1.sm_30.ptx:27 skipping new declaration
GPGPU-Sim PTX: Warning %r19 was declared previous at bfs-rodinia-3.1.sm_30.ptx:27 skipping new declaration
GPGPU-Sim PTX: Warning %r20 was declared previous at bfs-rodinia-3.1.sm_30.ptx:27 skipping new declaration
GPGPU-Sim PTX: Warning %r21 was declared previous at bfs-rodinia-3.1.sm_30.ptx:27 skipping new declaration
GPGPU-Sim PTX: Warning %r22 was declared previous at bfs-rodinia-3.1.sm_30.ptx:27 skipping new declaration
GPGPU-Sim PTX: Warning %r23 was declared previous at bfs-rodinia-3.1.sm_30.ptx:27 skipping new declaration
GPGPU-Sim PTX: Warning %r24 was declared previous at bfs-rodinia-3.1.sm_30.ptx:27 skipping new declaration
GPGPU-Sim PTX: Warning %rd0 was declared previous at bfs-rodinia-3.1.sm_30.ptx:28 skipping new declaration
GPGPU-Sim PTX: Warning %rd1 was declared previous at bfs-rodinia-3.1.sm_30.ptx:28 skipping new declaration
GPGPU-Sim PTX: Warning %rd2 was declared previous at bfs-rodinia-3.1.sm_30.ptx:28 skipping new declaration
GPGPU-Sim PTX: Warning %rd3 was declared previous at bfs-rodinia-3.1.sm_30.ptx:28 skipping new declaration
GPGPU-Sim PTX: Warning %rd4 was declared previous at bfs-rodinia-3.1.sm_30.ptx:28 skipping new declaration
GPGPU-Sim PTX: Warning %rd5 was declared previous at bfs-rodinia-3.1.sm_30.ptx:28 skipping new declaration
GPGPU-Sim PTX: Warning %rd6 was declared previous at bfs-rodinia-3.1.sm_30.ptx:28 skipping new declaration
GPGPU-Sim PTX: Warning %rd7 was declared previous at bfs-rodinia-3.1.sm_30.ptx:28 skipping new declaration
GPGPU-Sim PTX: Warning %rd8 was declared previous at bfs-rodinia-3.1.sm_30.ptx:28 skipping new declaration
GPGPU-Sim PTX: Warning %rd9 was declared previous at bfs-rodinia-3.1.sm_30.ptx:28 skipping new declaration
GPGPU-Sim PTX: Warning %rd10 was declared previous at bfs-rodinia-3.1.sm_30.ptx:28 skipping new declaration
GPGPU-Sim PTX: Warning %rd11 was declared previous at bfs-rodinia-3.1.sm_30.ptx:28 skipping new declaration
GPGPU-Sim PTX: Warning %rd12 was declared previous at bfs-rodinia-3.1.sm_30.ptx:28 skipping new declaration
GPGPU-Sim PTX: Warning %rd13 was declared previous at bfs-rodinia-3.1.sm_30.ptx:28 skipping new declaration
GPGPU-Sim PTX: Warning %rd14 was declared previous at bfs-rodinia-3.1.sm_30.ptx:28 skipping new declaration
GPGPU-Sim PTX: Warning %rd15 was declared previous at bfs-rodinia-3.1.sm_30.ptx:28 skipping new declaration
GPGPU-Sim PTX: Warning %rd16 was declared previous at bfs-rodinia-3.1.sm_30.ptx:28 skipping new declaration
GPGPU-Sim PTX: Warning %rd17 was declared previous at bfs-rodinia-3.1.sm_30.ptx:28 skipping new declaration
GPGPU-Sim PTX: Warning %rd18 was declared previous at bfs-rodinia-3.1.sm_30.ptx:28 skipping new declaration
GPGPU-Sim PTX: Warning %rd19 was declared previous at bfs-rodinia-3.1.sm_30.ptx:28 skipping new declaration
GPGPU-Sim PTX: Warning %rd20 was declared previous at bfs-rodinia-3.1.sm_30.ptx:28 skipping new declaration
GPGPU-Sim PTX: Warning %rd21 was declared previous at bfs-rodinia-3.1.sm_30.ptx:28 skipping new declaration
GPGPU-Sim PTX: Warning %rd22 was declared previous at bfs-rodinia-3.1.sm_30.ptx:28 skipping new declaration
GPGPU-Sim PTX: Warning %rd23 was declared previous at bfs-rodinia-3.1.sm_30.ptx:28 skipping new declaration
GPGPU-Sim PTX: Warning %rd24 was declared previous at bfs-rodinia-3.1.sm_30.ptx:28 skipping new declaration
GPGPU-Sim PTX: Warning %rd25 was declared previous at bfs-rodinia-3.1.sm_30.ptx:28 skipping new declaration
GPGPU-Sim PTX: Warning %rd26 was declared previous at bfs-rodinia-3.1.sm_30.ptx:28 skipping new declaration
GPGPU-Sim PTX: Warning %rd27 was declared previous at bfs-rodinia-3.1.sm_30.ptx:28 skipping new declaration
GPGPU-Sim PTX: Warning %rd28 was declared previous at bfs-rodinia-3.1.sm_30.ptx:28 skipping new declaration
GPGPU-Sim PTX: Warning %rd29 was declared previous at bfs-rodinia-3.1.sm_30.ptx:28 skipping new declaration
GPGPU-Sim PTX: Warning %rd30 was declared previous at bfs-rodinia-3.1.sm_30.ptx:28 skipping new declaration
GPGPU-Sim PTX: Warning %rd31 was declared previous at bfs-rodinia-3.1.sm_30.ptx:28 skipping new declaration
GPGPU-Sim PTX: instruction assembly for function '_Z6KernelP4NodePiPbS2_S2_S1_i'...   done.
GPGPU-Sim PTX: Warning %p0 was declared previous at bfs-rodinia-3.1.sm_30.ptx:112 skipping new declaration
GPGPU-Sim PTX: Warning %p1 was declared previous at bfs-rodinia-3.1.sm_30.ptx:112 skipping new declaration
GPGPU-Sim PTX: Warning %p2 was declared previous at bfs-rodinia-3.1.sm_30.ptx:112 skipping new declaration
GPGPU-Sim PTX: Warning %rs0 was declared previous at bfs-rodinia-3.1.sm_30.ptx:113 skipping new declaration
GPGPU-Sim PTX: Warning %rs1 was declared previous at bfs-rodinia-3.1.sm_30.ptx:113 skipping new declaration
GPGPU-Sim PTX: Warning %rs2 was declared previous at bfs-rodinia-3.1.sm_30.ptx:113 skipping new declaration
GPGPU-Sim PTX: Warning %rs3 was declared previous at bfs-rodinia-3.1.sm_30.ptx:113 skipping new declaration
GPGPU-Sim PTX: Warning %r0 was declared previous at bfs-rodinia-3.1.sm_30.ptx:114 skipping new declaration
GPGPU-Sim PTX: Warning %r1 was declared previous at bfs-rodinia-3.1.sm_30.ptx:114 skipping new declaration
GPGPU-Sim PTX: Warning %r2 was declared previous at bfs-rodinia-3.1.sm_30.ptx:114 skipping new declaration
GPGPU-Sim PTX: Warning %r3 was declared previous at bfs-rodinia-3.1.sm_30.ptx:114 skipping new declaration
GPGPU-Sim PTX: Warning %r4 was declared previous at bfs-rodinia-3.1.sm_30.ptx:114 skipping new declaration
GPGPU-Sim PTX: Warning %r5 was declared previous at bfs-rodinia-3.1.sm_30.ptx:114 skipping new declaration
GPGPU-Sim PTX: Warning %rd0 was declared previous at bfs-rodinia-3.1.sm_30.ptx:115 skipping new declaration
GPGPU-Sim PTX: Warning %rd1 was declared previous at bfs-rodinia-3.1.sm_30.ptx:115 skipping new declaration
GPGPU-Sim PTX: Warning %rd2 was declared previous at bfs-rodinia-3.1.sm_30.ptx:115 skipping new declaration
GPGPU-Sim PTX: Warning %rd3 was declared previous at bfs-rodinia-3.1.sm_30.ptx:115 skipping new declaration
GPGPU-Sim PTX: Warning %rd4 was declared previous at bfs-rodinia-3.1.sm_30.ptx:115 skipping new declaration
GPGPU-Sim PTX: Warning %rd5 was declared previous at bfs-rodinia-3.1.sm_30.ptx:115 skipping new declaration
GPGPU-Sim PTX: Warning %rd6 was declared previous at bfs-rodinia-3.1.sm_30.ptx:115 skipping new declaration
GPGPU-Sim PTX: Warning %rd7 was declared previous at bfs-rodinia-3.1.sm_30.ptx:115 skipping new declaration
GPGPU-Sim PTX: Warning %rd8 was declared previous at bfs-rodinia-3.1.sm_30.ptx:115 skipping new declaration
GPGPU-Sim PTX: Warning %rd9 was declared previous at bfs-rodinia-3.1.sm_30.ptx:115 skipping new declaration
GPGPU-Sim PTX: Warning %rd10 was declared previous at bfs-rodinia-3.1.sm_30.ptx:115 skipping new declaration
GPGPU-Sim PTX: Warning %rd11 was declared previous at bfs-rodinia-3.1.sm_30.ptx:115 skipping new declaration
GPGPU-Sim PTX: Warning %rd12 was declared previous at bfs-rodinia-3.1.sm_30.ptx:115 skipping new declaration
GPGPU-Sim PTX: Warning %rd13 was declared previous at bfs-rodinia-3.1.sm_30.ptx:115 skipping new declaration
GPGPU-Sim PTX: instruction assembly for function '_Z7Kernel2PbS_S_S_i'...   done.
GPGPU-Sim PTX: finished parsing EMBEDDED .ptx file bfs-rodinia-3.6.sm_70.ptx
GPGPU-Sim PTX: loading globals with explicit initializers... 
GPGPU-Sim PTX: finished loading globals (0 bytes total).
GPGPU-Sim PTX: loading constants with explicit initializers...  done.
[...]

Row_Buffer_Locality = 0.645083
Row_Buffer_Locality_read = 0.739438
Row_Buffer_Locality_write = 0.249090
Bank_Level_Parallism = 9.095436
Bank_Level_Parallism_Col = 6.133078
Bank_Level_Parallism_Ready = 2.278904
write_to_read_ratio_blp_rw_average = 0.525205
GrpLevelPara = 3.072971 

BW Util details:
bwutil = 0.275630 
total_CMD = 617411 
util_bw = 170177 
Wasted_Col = 152993 
Wasted_Row = 21102 
Idle = 273139 

BW Util Bottlenecks: 
RCDc_limit = 173350 
RCDWRc_limit = 81709 
WTRc_limit = 85354 
RTWc_limit = 479747 
CCDLc_limit = 94392 
rwq = 0 
CCDLc_limit_alone = 52343 
WTRc_limit_alone = 77885 
RTWc_limit_alone = 445167 

Commands details: 
total_CMD = 617411 
n_nop = 399525 
Read = 112971 
Write = 0 
L2_Alloc = 0 
L2_WB = 57206 
n_act = 49649 
n_pre = 49633 
n_ref = 0 
n_req = 139889 
total_req = 170177 

Dual Bus Interface Util: 
issued_total_row = 99282 
issued_total_col = 170177 
Row_Bus_Util =  0.160804 
CoL_Bus_Util = 0.275630 
Either_Row_CoL_Bus_Util = 0.352903 
Issued_on_Two_Bus_Simul_Util = 0.083531 
issued_two_Eff = 0.236697 
queue_avg = 20.675819 


dram_util_bins: 0 0 0 0 0 0 0 0 0 0
dram_eff_bins: 0 0 0 0 0 0 0 0 0 0
mrqq: max=64 avg=20.6758
Memory Partition 29: 
Cache L2_bank_058:
MSHR contents

Cache L2_bank_059:
MSHR contents

In Dram Latency Queue (total = 0): 
DRAM[29]: 16 bks, busW=16 BL=2 CL=12, tRRD=3 tCCD=1, tRCD=12 tRAS=28 tRP=12 tRC=40
n_cmd=617411 n_nop=397792 n_act=50380 n_pre=50364 n_ref_event=0 n_req=141742 n_rd=114403 n_rd_L2_A=0 n_write=0 n_wr_bk=57718 bw_util=0.2788
n_activity=369876 dram_eff=0.4653
bk0: 7184a 422536i bk1: 7251a 422441i bk2: 7037a 424302i bk3: 7297a 426440i bk4: 7103a 444127i bk5: 7105a 439313i bk6: 7001a 427111i bk7: 7039a 429063i bk8: 7100a 420673i bk9: 7177a 422242i bk10: 7357a 417620i bk11: 7209a 418388i bk12: 7074a 418693i bk13: 7086a 419080i bk14: 7142a 419871i bk15: 7241a 418284i 

------------------------------------------------------------------------

Row_Buffer_Locality = 0.644565
Row_Buffer_Locality_read = 0.736318
Row_Buffer_Locality_write = 0.260617
Bank_Level_Parallism = 9.422712
Bank_Level_Parallism_Col = 6.337763
Bank_Level_Parallism_Ready = 2.313872
write_to_read_ratio_blp_rw_average = 0.527471
GrpLevelPara = 3.108690 

BW Util details:
bwutil = 0.278779 
total_CMD = 617411 
util_bw = 172121 
Wasted_Col = 151589 
Wasted_Row = 19093 
Idle = 274608 

BW Util Bottlenecks: 
RCDc_limit = 174996 
RCDWRc_limit = 80991 
WTRc_limit = 86393 
RTWc_limit = 503667 
CCDLc_limit = 97021 
rwq = 0 
CCDLc_limit_alone = 52692 
WTRc_limit_alone = 79071 
RTWc_limit_alone = 466660 

Commands details: 
total_CMD = 617411 
n_nop = 397792 
Read = 114403 
Write = 0 
L2_Alloc = 0 
L2_WB = 57718 
n_act = 50380 
n_pre = 50364 
n_ref = 0 
n_req = 141742 
total_req = 172121 

Dual Bus Interface Util: 
issued_total_row = 100744 
issued_total_col = 172121 
Row_Bus_Util =  0.163172 
CoL_Bus_Util = 0.278779 
Either_Row_CoL_Bus_Util = 0.355710 
Issued_on_Two_Bus_Simul_Util = 0.086241 
issued_two_Eff = 0.242447 
queue_avg = 22.038517 


dram_util_bins: 0 0 0 0 0 0 0 0 0 0
dram_eff_bins: 0 0 0 0 0 0 0 0 0 0
mrqq: max=64 avg=22.0385
Memory Partition 30: 
Cache L2_bank_060:
MSHR contents

Cache L2_bank_061:
MSHR contents

In Dram Latency Queue (total = 0): 
DRAM[30]: 16 bks, busW=16 BL=2 CL=12, tRRD=3 tCCD=1, tRCD=12 tRAS=28 tRP=12 tRC=40
n_cmd=617411 n_nop=400004 n_act=49523 n_pre=49507 n_ref_event=0 n_req=138727 n_rd=111742 n_rd_L2_A=0 n_write=0 n_wr_bk=57237 bw_util=0.2737
n_activity=370656 dram_eff=0.4559
bk0: 7186a 421099i bk1: 7032a 426024i bk2: 7019a 430858i bk3: 6937a 433352i bk4: 7057a 446155i bk5: 6880a 446576i bk6: 6842a 431507i bk7: 6797a 436663i bk8: 6946a 425503i bk9: 6941a 429697i bk10: 7188a 425695i bk11: 7060a 428118i bk12: 6885a 426689i bk13: 6999a 428098i bk14: 6851a 425498i bk15: 7122a 426348i 

------------------------------------------------------------------------

Row_Buffer_Locality = 0.643018
Row_Buffer_Locality_read = 0.737315
Row_Buffer_Locality_write = 0.252548
Bank_Level_Parallism = 9.105021
Bank_Level_Parallism_Col = 6.144084
Bank_Level_Parallism_Ready = 2.272075
write_to_read_ratio_blp_rw_average = 0.529288
GrpLevelPara = 3.065602 

BW Util details:
bwutil = 0.273690 
total_CMD = 617411 
util_bw = 168979 
Wasted_Col = 154566 
Wasted_Row = 20158 
Idle = 273708 

BW Util Bottlenecks: 
RCDc_limit = 174372 
RCDWRc_limit = 83413 
WTRc_limit = 84522 
RTWc_limit = 491508 
CCDLc_limit = 94660 
rwq = 0 
CCDLc_limit_alone = 52426 
WTRc_limit_alone = 77247 
RTWc_limit_alone = 456549 

Commands details: 
total_CMD = 617411 
n_nop = 400004 
Read = 111742 
Write = 0 
L2_Alloc = 0 
L2_WB = 57237 
n_act = 49523 
n_pre = 49507 
n_ref = 0 
n_req = 138727 
total_req = 168979 

Dual Bus Interface Util: 
issued_total_row = 99030 
issued_total_col = 168979 
Row_Bus_Util =  0.160396 
CoL_Bus_Util = 0.273690 
Either_Row_CoL_Bus_Util = 0.352127 
Issued_on_Two_Bus_Simul_Util = 0.081958 
issued_two_Eff = 0.232752 
queue_avg = 20.144814 


dram_util_bins: 0 0 0 0 0 0 0 0 0 0
dram_eff_bins: 0 0 0 0 0 0 0 0 0 0
mrqq: max=64 avg=20.1448
Memory Partition 31: 
Cache L2_bank_062:
MSHR contents

Cache L2_bank_063:
MSHR contents

In Dram Latency Queue (total = 0): 
DRAM[31]: 16 bks, busW=16 BL=2 CL=12, tRRD=3 tCCD=1, tRCD=12 tRAS=28 tRP=12 tRC=40
n_cmd=617411 n_nop=400774 n_act=49220 n_pre=49204 n_ref_event=0 n_req=138474 n_rd=111528 n_rd_L2_A=0 n_write=0 n_wr_bk=57189 bw_util=0.2733
n_activity=370841 dram_eff=0.455
bk0: 7125a 429356i bk1: 7000a 430717i bk2: 7114a 434964i bk3: 7047a 437201i bk4: 6842a 449898i bk5: 6795a 447135i bk6: 6907a 435455i bk7: 6766a 436509i bk8: 6865a 428087i bk9: 6932a 429151i bk10: 7119a 425177i bk11: 7184a 428960i bk12: 6971a 426955i bk13: 6927a 425866i bk14: 6887a 428198i bk15: 7047a 428964i 

------------------------------------------------------------------------

Row_Buffer_Locality = 0.644554
Row_Buffer_Locality_read = 0.738684
Row_Buffer_Locality_write = 0.254954
Bank_Level_Parallism = 9.029717
Bank_Level_Parallism_Col = 6.096535
Bank_Level_Parallism_Ready = 2.268604
write_to_read_ratio_blp_rw_average = 0.524931
GrpLevelPara = 3.049940 

BW Util details:
bwutil = 0.273265 
total_CMD = 617411 
util_bw = 168717 
Wasted_Col = 153695 
Wasted_Row = 20285 
Idle = 274714 

BW Util Bottlenecks: 
RCDc_limit = 172526 
RCDWRc_limit = 83019 
WTRc_limit = 87836 
RTWc_limit = 473545 
CCDLc_limit = 93611 
rwq = 0 
CCDLc_limit_alone = 52231 
WTRc_limit_alone = 80387 
RTWc_limit_alone = 439614 

Commands details: 
total_CMD = 617411 
n_nop = 400774 
Read = 111528 
Write = 0 
L2_Alloc = 0 
L2_WB = 57189 
n_act = 49220 
n_pre = 49204 
n_ref = 0 
n_req = 138474 
total_req = 168717 

Dual Bus Interface Util: 
issued_total_row = 98424 
issued_total_col = 168717 
Row_Bus_Util =  0.159414 
CoL_Bus_Util = 0.273265 
Either_Row_CoL_Bus_Util = 0.350880 
Issued_on_Two_Bus_Simul_Util = 0.081800 
issued_two_Eff = 0.233127 
queue_avg = 19.990154 


dram_util_bins: 0 0 0 0 0 0 0 0 0 0
dram_eff_bins: 0 0 0 0 0 0 0 0 0 0
mrqq: max=64 avg=19.9902

========= L2 cache stats =========
L2_cache_bank[0]: Access = 189658, Miss = 94161, Miss_rate = 0.496, Pending_hits = 498, Reservation_fails = 387
L2_cache_bank[1]: Access = 190413, Miss = 94371, Miss_rate = 0.496, Pending_hits = 546, Reservation_fails = 129
L2_cache_bank[2]: Access = 189969, Miss = 94467, Miss_rate = 0.497, Pending_hits = 478, Reservation_fails = 0
L2_cache_bank[3]: Access = 189946, Miss = 94183, Miss_rate = 0.496, Pending_hits = 563, Reservation_fails = 202
L2_cache_bank[4]: Access = 189340, Miss = 94012, Miss_rate = 0.497, Pending_hits = 513, Reservation_fails = 25
L2_cache_bank[5]: Access = 189746, Miss = 93742, Miss_rate = 0.494, Pending_hits = 524, Reservation_fails = 0
L2_cache_bank[6]: Access = 188919, Miss = 93906, Miss_rate = 0.497, Pending_hits = 477, Reservation_fails = 0
L2_cache_bank[7]: Access = 189197, Miss = 93680, Miss_rate = 0.495, Pending_hits = 561, Reservation_fails = 0
L2_cache_bank[8]: Access = 189133, Miss = 92478, Miss_rate = 0.489, Pending_hits = 537, Reservation_fails = 882
L2_cache_bank[9]: Access = 190118, Miss = 93401, Miss_rate = 0.491, Pending_hits = 551, Reservation_fails = 157
L2_cache_bank[10]: Access = 188737, Miss = 93252, Miss_rate = 0.494, Pending_hits = 546, Reservation_fails = 404
L2_cache_bank[11]: Access = 316299, Miss = 199100, Miss_rate = 0.629, Pending_hits = 596, Reservation_fails = 0
L2_cache_bank[12]: Access = 189463, Miss = 93708, Miss_rate = 0.495, Pending_hits = 503, Reservation_fails = 0
L2_cache_bank[13]: Access = 189651, Miss = 94690, Miss_rate = 0.499, Pending_hits = 495, Reservation_fails = 0
L2_cache_bank[14]: Access = 189559, Miss = 93580, Miss_rate = 0.494, Pending_hits = 557, Reservation_fails = 773
L2_cache_bank[15]: Access = 190672, Miss = 95246, Miss_rate = 0.500, Pending_hits = 548, Reservation_fails = 742
L2_cache_bank[16]: Access = 189720, Miss = 93732, Miss_rate = 0.494, Pending_hits = 586, Reservation_fails = 318
L2_cache_bank[17]: Access = 189931, Miss = 93589, Miss_rate = 0.493, Pending_hits = 561, Reservation_fails = 1144
L2_cache_bank[18]: Access = 188962, Miss = 92456, Miss_rate = 0.489, Pending_hits = 514, Reservation_fails = 88
L2_cache_bank[19]: Access = 189410, Miss = 93669, Miss_rate = 0.495, Pending_hits = 502, Reservation_fails = 356
L2_cache_bank[20]: Access = 189583, Miss = 94241, Miss_rate = 0.497, Pending_hits = 650, Reservation_fails = 467
L2_cache_bank[21]: Access = 189363, Miss = 93972, Miss_rate = 0.496, Pending_hits = 616, Reservation_fails = 630
L2_cache_bank[22]: Access = 189117, Miss = 92881, Miss_rate = 0.491, Pending_hits = 494, Reservation_fails = 535
L2_cache_bank[23]: Access = 189301, Miss = 94104, Miss_rate = 0.497, Pending_hits = 536, Reservation_fails = 21
L2_cache_bank[24]: Access = 188782, Miss = 93221, Miss_rate = 0.494, Pending_hits = 529, Reservation_fails = 0
L2_cache_bank[25]: Access = 189572, Miss = 93722, Miss_rate = 0.494, Pending_hits = 569, Reservation_fails = 279
L2_cache_bank[26]: Access = 188549, Miss = 92209, Miss_rate = 0.489, Pending_hits = 485, Reservation_fails = 258
L2_cache_bank[27]: Access = 189034, Miss = 93975, Miss_rate = 0.497, Pending_hits = 565, Reservation_fails = 208
L2_cache_bank[28]: Access = 189260, Miss = 93085, Miss_rate = 0.492, Pending_hits = 587, Reservation_fails = 355
L2_cache_bank[29]: Access = 189285, Miss = 94180, Miss_rate = 0.498, Pending_hits = 608, Reservation_fails = 0
L2_cache_bank[30]: Access = 189386, Miss = 93784, Miss_rate = 0.495, Pending_hits = 559, Reservation_fails = 40
L2_cache_bank[31]: Access = 189300, Miss = 94264, Miss_rate = 0.498, Pending_hits = 508, Reservation_fails = 202
L2_cache_bank[32]: Access = 190153, Miss = 95116, Miss_rate = 0.500, Pending_hits = 625, Reservation_fails = 207
L2_cache_bank[33]: Access = 189576, Miss = 93560, Miss_rate = 0.494, Pending_hits = 565, Reservation_fails = 172
L2_cache_bank[34]: Access = 190805, Miss = 95970, Miss_rate = 0.503, Pending_hits = 564, Reservation_fails = 131
L2_cache_bank[35]: Access = 189784, Miss = 93857, Miss_rate = 0.495, Pending_hits = 574, Reservation_fails = 0
L2_cache_bank[36]: Access = 189521, Miss = 94223, Miss_rate = 0.497, Pending_hits = 542, Reservation_fails = 1031
L2_cache_bank[37]: Access = 190436, Miss = 95092, Miss_rate = 0.499, Pending_hits = 538, Reservation_fails = 0
L2_cache_bank[38]: Access = 189487, Miss = 93983, Miss_rate = 0.496, Pending_hits = 569, Reservation_fails = 9
L2_cache_bank[39]: Access = 190469, Miss = 94311, Miss_rate = 0.495, Pending_hits = 564, Reservation_fails = 58
L2_cache_bank[40]: Access = 190515, Miss = 94554, Miss_rate = 0.496, Pending_hits = 650, Reservation_fails = 328
L2_cache_bank[41]: Access = 189642, Miss = 95191, Miss_rate = 0.502, Pending_hits = 628, Reservation_fails = 36
L2_cache_bank[42]: Access = 190324, Miss = 94620, Miss_rate = 0.497, Pending_hits = 581, Reservation_fails = 0
L2_cache_bank[43]: Access = 189765, Miss = 95278, Miss_rate = 0.502, Pending_hits = 628, Reservation_fails = 0
L2_cache_bank[44]: Access = 189495, Miss = 94378, Miss_rate = 0.498, Pending_hits = 544, Reservation_fails = 0
L2_cache_bank[45]: Access = 189800, Miss = 94538, Miss_rate = 0.498, Pending_hits = 494, Reservation_fails = 709
L2_cache_bank[46]: Access = 189862, Miss = 94398, Miss_rate = 0.497, Pending_hits = 481, Reservation_fails = 517
L2_cache_bank[47]: Access = 190149, Miss = 94588, Miss_rate = 0.497, Pending_hits = 616, Reservation_fails = 127
L2_cache_bank[48]: Access = 190366, Miss = 94436, Miss_rate = 0.496, Pending_hits = 561, Reservation_fails = 254
L2_cache_bank[49]: Access = 190295, Miss = 94898, Miss_rate = 0.499, Pending_hits = 619, Reservation_fails = 343
L2_cache_bank[50]: Access = 190022, Miss = 94870, Miss_rate = 0.499, Pending_hits = 546, Reservation_fails = 404
L2_cache_bank[51]: Access = 190021, Miss = 94574, Miss_rate = 0.498, Pending_hits = 575, Reservation_fails = 77
L2_cache_bank[52]: Access = 190895, Miss = 95619, Miss_rate = 0.501, Pending_hits = 607, Reservation_fails = 319
L2_cache_bank[53]: Access = 191060, Miss = 95566, Miss_rate = 0.500, Pending_hits = 612, Reservation_fails = 0
L2_cache_bank[54]: Access = 190406, Miss = 94618, Miss_rate = 0.497, Pending_hits = 561, Reservation_fails = 124
L2_cache_bank[55]: Access = 190997, Miss = 94629, Miss_rate = 0.495, Pending_hits = 543, Reservation_fails = 0
L2_cache_bank[56]: Access = 190790, Miss = 95388, Miss_rate = 0.500, Pending_hits = 549, Reservation_fails = 0
L2_cache_bank[57]: Access = 193008, Miss = 98015, Miss_rate = 0.508, Pending_hits = 564, Reservation_fails = 828
L2_cache_bank[58]: Access = 191338, Miss = 95902, Miss_rate = 0.501, Pending_hits = 623, Reservation_fails = 305
L2_cache_bank[59]: Access = 193985, Miss = 98810, Miss_rate = 0.509, Pending_hits = 606, Reservation_fails = 0
L2_cache_bank[60]: Access = 191563, Miss = 96058, Miss_rate = 0.501, Pending_hits = 644, Reservation_fails = 0
L2_cache_bank[61]: Access = 191613, Miss = 96279, Miss_rate = 0.502, Pending_hits = 595, Reservation_fails = 108
L2_cache_bank[62]: Access = 190606, Miss = 95480, Miss_rate = 0.501, Pending_hits = 587, Reservation_fails = 187
L2_cache_bank[63]: Access = 191841, Miss = 96529, Miss_rate = 0.503, Pending_hits = 627, Reservation_fails = 16
L2_total_cache_accesses = 12287964
L2_total_cache_misses = 6150389
L2_total_cache_miss_rate = 0.5005
L2_total_cache_pending_hits = 35944
L2_total_cache_reservation_fails = 14892
L2_total_cache_breakdown:
	L2_cache_stats_breakdown[GLOBAL_ACC_R][HIT] = 4913386
	L2_cache_stats_breakdown[GLOBAL_ACC_R][HIT_RESERVED] = 32083
	L2_cache_stats_breakdown[GLOBAL_ACC_R][MISS] = 1355308
	L2_cache_stats_breakdown[GLOBAL_ACC_R][RESERVATION_FAIL] = 14892
	L2_cache_stats_breakdown[GLOBAL_ACC_R][SECTOR_MISS] = 2115061
	L2_cache_stats_breakdown[GLOBAL_ACC_R][MSHR_HIT] = 32083
	L2_cache_stats_breakdown[LOCAL_ACC_R][HIT] = 0
	L2_cache_stats_breakdown[LOCAL_ACC_R][HIT_RESERVED] = 0
	L2_cache_stats_breakdown[LOCAL_ACC_R][MISS] = 0
	L2_cache_stats_breakdown[LOCAL_ACC_R][RESERVATION_FAIL] = 0
	L2_cache_stats_breakdown[LOCAL_ACC_R][SECTOR_MISS] = 0
	L2_cache_stats_breakdown[LOCAL_ACC_R][MSHR_HIT] = 0
	L2_cache_stats_breakdown[CONST_ACC_R][HIT] = 0
	L2_cache_stats_breakdown[CONST_ACC_R][HIT_RESERVED] = 0
	L2_cache_stats_breakdown[CONST_ACC_R][MISS] = 0
	L2_cache_stats_breakdown[CONST_ACC_R][RESERVATION_FAIL] = 0
	L2_cache_stats_breakdown[CONST_ACC_R][SECTOR_MISS] = 0
	L2_cache_stats_breakdown[CONST_ACC_R][MSHR_HIT] = 0
	L2_cache_stats_breakdown[TEXTURE_ACC_R][HIT] = 0
	L2_cache_stats_breakdown[TEXTURE_ACC_R][HIT_RESERVED] = 0
	L2_cache_stats_breakdown[TEXTURE_ACC_R][MISS] = 0
	L2_cache_stats_breakdown[TEXTURE_ACC_R][RESERVATION_FAIL] = 0
	L2_cache_stats_breakdown[TEXTURE_ACC_R][SECTOR_MISS] = 0
	L2_cache_stats_breakdown[TEXTURE_ACC_R][MSHR_HIT] = 0
	L2_cache_stats_breakdown[GLOBAL_ACC_W][HIT] = 1188245
	L2_cache_stats_breakdown[GLOBAL_ACC_W][HIT_RESERVED] = 3861
	L2_cache_stats_breakdown[GLOBAL_ACC_W][MISS] = 703227
	L2_cache_stats_breakdown[GLOBAL_ACC_W][RESERVATION_FAIL] = 0
	L2_cache_stats_breakdown[GLOBAL_ACC_W][SECTOR_MISS] = 1976793
	L2_cache_stats_breakdown[GLOBAL_ACC_W][MSHR_HIT] = 0
	L2_cache_stats_breakdown[LOCAL_ACC_W][HIT] = 0
	L2_cache_stats_breakdown[LOCAL_ACC_W][HIT_RESERVED] = 0
	L2_cache_stats_breakdown[LOCAL_ACC_W][MISS] = 0
	L2_cache_stats_breakdown[LOCAL_ACC_W][RESERVATION_FAIL] = 0
	L2_cache_stats_breakdown[LOCAL_ACC_W][SECTOR_MISS] = 0
	L2_cache_stats_breakdown[LOCAL_ACC_W][MSHR_HIT] = 0
	L2_cache_stats_breakdown[L1_WRBK_ACC][HIT] = 0
	L2_cache_stats_breakdown[L1_WRBK_ACC][HIT_RESERVED] = 0
	L2_cache_stats_breakdown[L1_WRBK_ACC][MISS] = 0
	L2_cache_stats_breakdown[L1_WRBK_ACC][RESERVATION_FAIL] = 0
	L2_cache_stats_breakdown[L1_WRBK_ACC][SECTOR_MISS] = 0
	L2_cache_stats_breakdown[L1_WRBK_ACC][MSHR_HIT] = 0
	L2_cache_stats_breakdown[L2_WRBK_ACC][HIT] = 0
	L2_cache_stats_breakdown[L2_WRBK_ACC][HIT_RESERVED] = 0
	L2_cache_stats_breakdown[L2_WRBK_ACC][MISS] = 0
	L2_cache_stats_breakdown[L2_WRBK_ACC][RESERVATION_FAIL] = 0
	L2_cache_stats_breakdown[L2_WRBK_ACC][SECTOR_MISS] = 0
	L2_cache_stats_breakdown[L2_WRBK_ACC][MSHR_HIT] = 0
	L2_cache_stats_breakdown[INST_ACC_R][HIT] = 0
	L2_cache_stats_breakdown[INST_ACC_R][HIT_RESERVED] = 0
	L2_cache_stats_breakdown[INST_ACC_R][MISS] = 0
	L2_cache_stats_breakdown[INST_ACC_R][RESERVATION_FAIL] = 0
	L2_cache_stats_breakdown[INST_ACC_R][SECTOR_MISS] = 0
	L2_cache_stats_breakdown[INST_ACC_R][MSHR_HIT] = 0
	L2_cache_stats_breakdown[L1_WR_ALLOC_R][HIT] = 0
	L2_cache_stats_breakdown[L1_WR_ALLOC_R][HIT_RESERVED] = 0
	L2_cache_stats_breakdown[L1_WR_ALLOC_R][MISS] = 0
	L2_cache_stats_breakdown[L1_WR_ALLOC_R][RESERVATION_FAIL] = 0
	L2_cache_stats_breakdown[L1_WR_ALLOC_R][SECTOR_MISS] = 0
	L2_cache_stats_breakdown[L1_WR_ALLOC_R][MSHR_HIT] = 0
	L2_cache_stats_breakdown[L2_WR_ALLOC_R][HIT] = 0
	L2_cache_stats_breakdown[L2_WR_ALLOC_R][HIT_RESERVED] = 0
	L2_cache_stats_breakdown[L2_WR_ALLOC_R][MISS] = 0
	L2_cache_stats_breakdown[L2_WR_ALLOC_R][RESERVATION_FAIL] = 0
	L2_cache_stats_breakdown[L2_WR_ALLOC_R][SECTOR_MISS] = 0
	L2_cache_stats_breakdown[L2_WR_ALLOC_R][MSHR_HIT] = 0
	L2_cache_stats_breakdown[GLOBAL_ACC_R][TOTAL_ACCESS] = 8447921
	L2_cache_stats_breakdown[GLOBAL_ACC_W][TOTAL_ACCESS] = 3872126
L2_total_cache_reservation_fail_breakdown:
	L2_cache_stats_fail_breakdown[GLOBAL_ACC_R][MSHR_MERGE_ENRTY_FAIL] = 14892
L2_cache_data_port_util = 0.126
L2_cache_fill_port_util = 0.066

icnt_total_pkts_mem_to_simt=12287964
icnt_total_pkts_simt_to_mem=12287964
LD_mem_lat_dist  0 0 0 0 0 0 0 0 0 0 0 0 0 0 0 0 0 0 0 0 0 0 0 0 0 0 0
ST_mem_lat_dist  0 0 0 0 0 0 0 0 0 0 0 0 0 0 0 0 0 0 0 0 0 0 0 0 0 0 0
----------------------------Interconnect-DETAILS--------------------------------
Req_Network_injected_packets_num = 12287964
Req_Network_cycles = 822254
Req_Network_injected_packets_per_cycle =      14.9442 
Req_Network_conflicts_per_cycle =      23.4824
Req_Network_conflicts_per_cycle_util =      30.1776
Req_Bank_Level_Parallism =      19.2051
Req_Network_in_buffer_full_per_cycle =       0.0793
Req_Network_in_buffer_avg_util =      45.1320
Req_Network_out_buffer_full_per_cycle =       0.0846
Req_Network_out_buffer_avg_util =      21.5613

Reply_Network_injected_packets_num = 12287964
Reply_Network_cycles = 822254
Reply_Network_injected_packets_per_cycle =       14.9442
Reply_Network_conflicts_per_cycle =        8.4287
Reply_Network_conflicts_per_cycle_util =      10.7830
Reply_Bank_Level_Parallism =      19.1185
Reply_Network_in_buffer_full_per_cycle =       0.0008
Reply_Network_in_buffer_avg_util =       3.4498
Reply_Network_out_buffer_full_per_cycle =       0.0000
Reply_Network_out_buffer_avg_util =       0.1868
----------------------------END-of-Interconnect-DETAILS-------------------------


gpgpu_simulation_time = 0 days, 1 hrs, 33 min, 46 sec (5626 sec)
gpgpu_simulation_rate = 96252 (inst/sec)
gpgpu_simulation_rate = 146 (cycle/sec)
gpgpu_silicon_slowdown = 7753424x
Kernel Executed 12 times
Result stored in result.txt
GPGPU-Sim: *** exit detected ***
