Skipping setup_environment - already set
doing: export -n PTX_SIM_USE_PTX_FILE
doing: export LD_LIBRARY_PATH=/home/min/a/devlinc/Documents/ECE60827/hardware-sim-assgn-2/hardware-simulation-assignment-2-texashodlr/util/job_launching/../../sim_run_9.1/gpgpu-sim-builds/gpgpu-sim_git-commit-a5339f56558d282e0ff48181156f07c28d32c1b6_modified_0.0:/home/min/a/devlinc/Documents/ECE60827/hardware-sim-assgn-2/hardware-simulation-assignment-2-texashodlr/gpu-simulator/gpgpu-sim/lib/gcc-8.3.0/cuda-9010/release:/home/min/a/devlinc/Documents/ECE60827/hardware-sim-assgn-2/hardware-simulation-assignment-2-texashodlr/gpu-simulator/gpgpu-sim/lib/gcc-8.3.0/cuda-9010/release:/package/gcc/8.3.0/lib64:
doing: cd /home/min/a/devlinc/Documents/ECE60827/hardware-sim-assgn-2/hardware-simulation-assignment-2-texashodlr/util/job_launching/../../sim_run_9.1/hotspot-rodinia-3.1/1024_2_2___data_temp_1024___data_power_1024_output_out/QV100-PTX-1B_INSN-8CLUSTER
doing: export OPENCL_CURRENT_TEST_PATH=/home/min/a/devlinc/Documents/ECE60827/hardware-sim-assgn-2/hardware-simulation-assignment-2-texashodlr/util/job_launching/../../sim_run_9.1/hotspot-rodinia-3.1/1024_2_2___data_temp_1024___data_power_1024_output_out/QV100-PTX-1B_INSN-8CLUSTER
doing: export OPENCL_REMOTE_GPU_HOST=REPLACE_REMOTE_HOST
doing 
doing: export PATH=/home/min/a/devlinc/Documents/ECE60827/hardware-sim-assgn-2/hardware-simulation-assignment-2-texashodlr/gpu-simulator/gpgpu-sim/bin:/home/min/a/ee695paa/cuda/bin:/home/min/a/ee695paa/cuda/bin:/home/min/a/ee695paa/cuda/bin:/package/gcc/8.3.0/bin:/usr/lib64/qt-3.3/bin:/usr/lib64/ccache:/usr/local/bin:/usr/bin:/usr/local/sbin:/usr/sbin:.
doing export CUDA_LAUNCH_BLOCKING=1
doing:  /home/min/a/ee695paa/github/gpu-app-collection/src/..//bin/9.1/release/hotspot-rodinia-3.1 1024 2 2 ./data/temp_1024 ./data/power_1024 output.out


        *** GPGPU-Sim Simulator Version 4.0.0  [build gpgpu-sim_git-commit-a5339f56558d282e0ff48181156f07c28d32c1b6_modified_0.0] ***


GPGPU-Sim PTX: simulation mode 0 (can change with PTX_SIM_MODE_FUNC environment variable:
               1=functional simulation only, 0=detailed performance simulator)
GPGPU-Sim: Configuration options:

-save_embedded_ptx                      0 # saves ptx files embedded in binary as <n>.ptx
-keep                                   0 # keep intermediate files created by GPGPU-Sim when interfacing with external programs
-gpgpu_ptx_save_converted_ptxplus                    0 # Saved converted ptxplus to a file
-gpgpu_occupancy_sm_number                   70 # The SM number to pass to ptxas when getting register usage for computing GPU occupancy. This parameter is required in the config.
-ptx_opcode_latency_int      4,13,4,5,145,21 # Opcode latencies for integers <ADD,MAX,MUL,MAD,DIV,SHFL>Default 1,1,19,25,145,32
-ptx_opcode_latency_fp          4,13,4,5,39 # Opcode latencies for single precision floating points <ADD,MAX,MUL,MAD,DIV>Default 1,1,1,1,30
-ptx_opcode_latency_dp         8,19,8,8,330 # Opcode latencies for double precision floating points <ADD,MAX,MUL,MAD,DIV>Default 8,8,8,8,335
-ptx_opcode_latency_sfu                  100 # Opcode latencies for SFU instructionsDefault 8
-ptx_opcode_latency_tesnor                   64 # Opcode latencies for Tensor instructionsDefault 64
-ptx_opcode_initiation_int          2,2,2,2,8,4 # Opcode initiation intervals for integers <ADD,MAX,MUL,MAD,DIV,SHFL>Default 1,1,4,4,32,4
-ptx_opcode_initiation_fp            2,2,2,2,4 # Opcode initiation intervals for single precision floating points <ADD,MAX,MUL,MAD,DIV>Default 1,1,1,1,5
-ptx_opcode_initiation_dp          4,4,4,4,130 # Opcode initiation intervals for double precision floating points <ADD,MAX,MUL,MAD,DIV>Default 8,8,8,8,130
-ptx_opcode_initiation_sfu                    8 # Opcode initiation intervals for sfu instructionsDefault 8
-ptx_opcode_initiation_tensor                   64 # Opcode initiation intervals for tensor instructionsDefault 64
-cdp_latency         7200,8000,100,12000,1600 # CDP API latency <cudaStreamCreateWithFlags, cudaGetParameterBufferV2_init_perWarp, cudaGetParameterBufferV2_perKernel, cudaLaunchDeviceV2_init_perWarp, cudaLaunchDevicV2_perKernel>Default 7200,8000,100,12000,1600
-network_mode                           2 # Interconnection network mode
-inter_config_file                   mesh # Interconnection network config file
-icnt_in_buffer_limit                  512 # in_buffer_limit
-icnt_out_buffer_limit                  512 # out_buffer_limit
-icnt_subnets                           2 # subnets
-icnt_arbiter_algo                      1 # arbiter_algo
-icnt_verbose                           0 # inct_verbose
-icnt_grant_cycles                      1 # grant_cycles
-gpgpu_ptx_use_cuobjdump                    1 # Use cuobjdump to extract ptx and sass from binaries
-gpgpu_experimental_lib_support                    0 # Try to extract code from cuda libraries [Broken because of unknown cudaGetExportTable]
-checkpoint_option                      0 #  checkpointing flag (0 = no checkpoint)
-checkpoint_kernel                      1 #  checkpointing during execution of which kernel (1- 1st kernel)
-checkpoint_CTA                         0 #  checkpointing after # of CTA (< less than total CTA)
-resume_option                          0 #  resume flag (0 = no resume)
-resume_kernel                          0 #  Resume from which kernel (1= 1st kernel)
-resume_CTA                             0 #  resume from which CTA 
-checkpoint_CTA_t                       0 #  resume from which CTA 
-checkpoint_insn_Y                      0 #  resume from which CTA 
-gpgpu_ptx_convert_to_ptxplus                    0 # Convert SASS (native ISA) to ptxplus and run ptxplus
-gpgpu_ptx_force_max_capability                   70 # Force maximum compute capability
-gpgpu_ptx_inst_debug_to_file                    0 # Dump executed instructions' debug information to file
-gpgpu_ptx_inst_debug_file       inst_debug.txt # Executed instructions' debug output file
-gpgpu_ptx_inst_debug_thread_uid                    1 # Thread UID for executed instructions' debug output
-gpgpu_simd_model                       1 # 1 = post-dominator
-gpgpu_shader_core_pipeline              2048:32 # shader core pipeline config, i.e., {<nthread>:<warpsize>}
-gpgpu_tex_cache:l1  N:4:128:256,L:R:m:N:L,T:512:8,128:2 # per-shader L1 texture cache  (READ-ONLY) config  {<nsets>:<bsize>:<assoc>,<rep>:<wr>:<alloc>:<wr_alloc>,<mshr>:<N>:<merge>,<mq>:<rf>}
-gpgpu_const_cache:l1 N:128:64:8,L:R:f:N:L,S:2:64,4 # per-shader L1 constant memory cache  (READ-ONLY) config  {<nsets>:<bsize>:<assoc>,<rep>:<wr>:<alloc>:<wr_alloc>,<mshr>:<N>:<merge>,<mq>} 
-gpgpu_cache:il1     N:64:128:16,L:R:f:N:L,S:2:48,4 # shader L1 instruction cache config  {<nsets>:<bsize>:<assoc>,<rep>:<wr>:<alloc>:<wr_alloc>,<mshr>:<N>:<merge>,<mq>} 
-gpgpu_cache:dl1     S:1:128:256,L:L:m:N:L,A:512:8,16:0,32 # per-shader L1 data cache config  {<nsets>:<bsize>:<assoc>,<rep>:<wr>:<alloc>:<wr_alloc>,<mshr>:<N>:<merge>,<mq> | none}
-gpgpu_l1_banks                         4 # The number of L1 cache banks
-gpgpu_l1_banks_byte_interleaving                   32 # l1 banks byte interleaving granularity
-gpgpu_l1_banks_hashing_function                    0 # l1 banks hashing function
-gpgpu_l1_latency                      20 # L1 Hit Latency
-gpgpu_smem_latency                    20 # smem Latency
-gpgpu_cache:dl1PrefL1                 none # per-shader L1 data cache config  {<nsets>:<bsize>:<assoc>,<rep>:<wr>:<alloc>:<wr_alloc>,<mshr>:<N>:<merge>,<mq> | none}
-gpgpu_cache:dl1PrefShared                 none # per-shader L1 data cache config  {<nsets>:<bsize>:<assoc>,<rep>:<wr>:<alloc>:<wr_alloc>,<mshr>:<N>:<merge>,<mq> | none}
-gpgpu_gmem_skip_L1D                    0 # global memory access skip L1D cache (implements -Xptxas -dlcm=cg, default=no skip)
-gpgpu_perfect_mem                      0 # enable perfect memory mode (no cache miss)
-n_regfile_gating_group                    4 # group of lanes that should be read/written together)
-gpgpu_clock_gated_reg_file                    0 # enable clock gated reg file for power calculations
-gpgpu_clock_gated_lanes                    0 # enable clock gated lanes for power calculations
-gpgpu_shader_registers                65536 # Number of registers per shader core. Limits number of concurrent CTAs. (default 8192)
-gpgpu_registers_per_block                65536 # Maximum number of registers per CTA. (default 8192)
-gpgpu_ignore_resources_limitation                    0 # gpgpu_ignore_resources_limitation (default 0)
-gpgpu_shader_cta                      32 # Maximum number of concurrent CTAs in shader (default 8)
-gpgpu_num_cta_barriers                   16 # Maximum number of named barriers per CTA (default 16)
-gpgpu_n_clusters                      80 # number of processing clusters
-gpgpu_n_cores_per_cluster                    8 # number of simd cores per cluster
-gpgpu_n_cluster_ejection_buffer_size                   32 # number of packets in ejection buffer
-gpgpu_n_ldst_response_buffer_size                    2 # number of response packets in ld/st unit ejection buffer
-gpgpu_shmem_per_block                65536 # Size of shared memory per thread block or CTA (default 48kB)
-gpgpu_shmem_size                   98304 # Size of shared memory per shader core (default 16kB)
-gpgpu_adaptive_cache_config                    1 # adaptive_cache_config
-gpgpu_shmem_sizeDefault                98304 # Size of shared memory per shader core (default 16kB)
-gpgpu_shmem_size_PrefL1                16384 # Size of shared memory per shader core (default 16kB)
-gpgpu_shmem_size_PrefShared                16384 # Size of shared memory per shader core (default 16kB)
-gpgpu_shmem_num_banks                   32 # Number of banks in the shared memory in each shader core (default 16)
-gpgpu_shmem_limited_broadcast                    0 # Limit shared memory to do one broadcast per cycle (default on)
-gpgpu_shmem_warp_parts                    1 # Number of portions a warp is divided into for shared memory bank conflict check 
-gpgpu_mem_unit_ports                    1 # The number of memory transactions allowed per core cycle
-gpgpu_shmem_warp_parts                    1 # Number of portions a warp is divided into for shared memory bank conflict check 
-gpgpu_warpdistro_shader                   -1 # Specify which shader core to collect the warp size distribution from
-gpgpu_warp_issue_shader                    0 # Specify which shader core to collect the warp issue distribution from
-gpgpu_local_mem_map                    1 # Mapping from local memory space address to simulated GPU physical address space (default = enabled)
-gpgpu_num_reg_banks                   16 # Number of register banks (default = 8)
-gpgpu_reg_bank_use_warp_id                    0 # Use warp ID in mapping registers to banks (default = off)
-gpgpu_sub_core_model                    1 # Sub Core Volta/Pascal model (default = off)
-gpgpu_enable_specialized_operand_collector                    0 # enable_specialized_operand_collector
-gpgpu_operand_collector_num_units_sp                    4 # number of collector units (default = 4)
-gpgpu_operand_collector_num_units_dp                    0 # number of collector units (default = 0)
-gpgpu_operand_collector_num_units_sfu                    4 # number of collector units (default = 4)
-gpgpu_operand_collector_num_units_int                    0 # number of collector units (default = 0)
-gpgpu_operand_collector_num_units_tensor_core                    4 # number of collector units (default = 4)
-gpgpu_operand_collector_num_units_mem                    2 # number of collector units (default = 2)
-gpgpu_operand_collector_num_units_gen                    8 # number of collector units (default = 0)
-gpgpu_operand_collector_num_in_ports_sp                    1 # number of collector unit in ports (default = 1)
-gpgpu_operand_collector_num_in_ports_dp                    0 # number of collector unit in ports (default = 0)
-gpgpu_operand_collector_num_in_ports_sfu                    1 # number of collector unit in ports (default = 1)
-gpgpu_operand_collector_num_in_ports_int                    0 # number of collector unit in ports (default = 0)
-gpgpu_operand_collector_num_in_ports_tensor_core                    1 # number of collector unit in ports (default = 1)
-gpgpu_operand_collector_num_in_ports_mem                    1 # number of collector unit in ports (default = 1)
-gpgpu_operand_collector_num_in_ports_gen                    8 # number of collector unit in ports (default = 0)
-gpgpu_operand_collector_num_out_ports_sp                    1 # number of collector unit in ports (default = 1)
-gpgpu_operand_collector_num_out_ports_dp                    0 # number of collector unit in ports (default = 0)
-gpgpu_operand_collector_num_out_ports_sfu                    1 # number of collector unit in ports (default = 1)
-gpgpu_operand_collector_num_out_ports_int                    0 # number of collector unit in ports (default = 0)
-gpgpu_operand_collector_num_out_ports_tensor_core                    1 # number of collector unit in ports (default = 1)
-gpgpu_operand_collector_num_out_ports_mem                    1 # number of collector unit in ports (default = 1)
-gpgpu_operand_collector_num_out_ports_gen                    8 # number of collector unit in ports (default = 0)
-gpgpu_coalesce_arch                   60 # Coalescing arch (GT200 = 13, Fermi = 20)
-gpgpu_num_sched_per_core                    4 # Number of warp schedulers per core
-gpgpu_max_insn_issue_per_warp                    1 # Max number of instructions that can be issued per warp in one cycle by scheduler (either 1 or 2)
-gpgpu_dual_issue_diff_exec_units                    1 # should dual issue use two different execution unit resources (Default = 1)
-gpgpu_simt_core_sim_order                    1 # Select the simulation order of cores in a cluster (0=Fix, 1=Round-Robin)
-gpgpu_pipeline_widths 4,4,4,4,4,4,4,4,4,4,8,4,4 # Pipeline widths ID_OC_SP,ID_OC_DP,ID_OC_INT,ID_OC_SFU,ID_OC_MEM,OC_EX_SP,OC_EX_DP,OC_EX_INT,OC_EX_SFU,OC_EX_MEM,EX_WB,ID_OC_TENSOR_CORE,OC_EX_TENSOR_CORE
-gpgpu_tensor_core_avail                    1 # Tensor Core Available (default=0)
-gpgpu_num_sp_units                     4 # Number of SP units (default=1)
-gpgpu_num_dp_units                     4 # Number of DP units (default=0)
-gpgpu_num_int_units                    4 # Number of INT units (default=0)
-gpgpu_num_sfu_units                    4 # Number of SF units (default=1)
-gpgpu_num_tensor_core_units                    4 # Number of tensor_core units (default=1)
-gpgpu_num_mem_units                    1 # Number if ldst units (default=1) WARNING: not hooked up to anything
-gpgpu_scheduler                      gto # Scheduler configuration: < lrr | gto | two_level_active > If two_level_active:<num_active_warps>:<inner_prioritization>:<outer_prioritization>For complete list of prioritization values see shader.h enum scheduler_prioritization_typeDefault: gto
-gpgpu_concurrent_kernel_sm                    0 # Support concurrent kernels on a SM (default = disabled)
-gpgpu_perfect_inst_const_cache                    1 # perfect inst and const cache mode, so all inst and const hits in the cache(default = disabled)
-gpgpu_inst_fetch_throughput                    4 # the number of fetched intruction per warp each cycle
-gpgpu_reg_file_port_throughput                    2 # the number ports of the register file
-specialized_unit_1         0,4,4,4,4,BRA # specialized unit config {<enabled>,<num_units>:<latency>:<initiation>,<ID_OC_SPEC>:<OC_EX_SPEC>,<NAME>}
-specialized_unit_2         0,4,4,4,4,BRA # specialized unit config {<enabled>,<num_units>:<latency>:<initiation>,<ID_OC_SPEC>:<OC_EX_SPEC>,<NAME>}
-specialized_unit_3         0,4,4,4,4,BRA # specialized unit config {<enabled>,<num_units>:<latency>:<initiation>,<ID_OC_SPEC>:<OC_EX_SPEC>,<NAME>}
-specialized_unit_4         0,4,4,4,4,BRA # specialized unit config {<enabled>,<num_units>:<latency>:<initiation>,<ID_OC_SPEC>:<OC_EX_SPEC>,<NAME>}
-specialized_unit_5         0,4,4,4,4,BRA # specialized unit config {<enabled>,<num_units>:<latency>:<initiation>,<ID_OC_SPEC>:<OC_EX_SPEC>,<NAME>}
-specialized_unit_6         0,4,4,4,4,BRA # specialized unit config {<enabled>,<num_units>:<latency>:<initiation>,<ID_OC_SPEC>:<OC_EX_SPEC>,<NAME>}
-specialized_unit_7         0,4,4,4,4,BRA # specialized unit config {<enabled>,<num_units>:<latency>:<initiation>,<ID_OC_SPEC>:<OC_EX_SPEC>,<NAME>}
-specialized_unit_8         0,4,4,4,4,BRA # specialized unit config {<enabled>,<num_units>:<latency>:<initiation>,<ID_OC_SPEC>:<OC_EX_SPEC>,<NAME>}
-gpgpu_perf_sim_memcpy                    1 # Fill the L2 cache on memcpy
-gpgpu_simple_dram_model                    0 # simple_dram_model with fixed latency and BW
-gpgpu_dram_scheduler                    1 # 0 = fifo, 1 = FR-FCFS (defaul)
-gpgpu_dram_partition_queues          64:64:64:64 # i2$:$2d:d2$:$2i
-l2_ideal                               0 # Use a ideal L2 cache that always hit
-gpgpu_cache:dl2     S:32:128:24,L:B:m:L:P,A:192:4,32:0,32 # unified banked L2 data cache config  {<nsets>:<bsize>:<assoc>,<rep>:<wr>:<alloc>:<wr_alloc>,<mshr>:<N>:<merge>,<mq>}
-gpgpu_cache:dl2_texture_only                    0 # L2 cache used for texture only
-gpgpu_n_mem                           32 # number of memory modules (e.g. memory controllers) in gpu
-gpgpu_n_sub_partition_per_mchannel                    2 # number of memory subpartition in each memory module
-gpgpu_n_mem_per_ctrlr                    1 # number of memory chips per memory controller
-gpgpu_memlatency_stat                   14 # track and display latency statistics 0x2 enables MC, 0x4 enables queue logs
-gpgpu_frfcfs_dram_sched_queue_size                   64 # 0 = unlimited (default); # entries per chip
-gpgpu_dram_return_queue_size                  192 # 0 = unlimited (default); # entries per chip
-gpgpu_dram_buswidth                   16 # default = 4 bytes (8 bytes per cycle at DDR)
-gpgpu_dram_burst_length                    2 # Burst length of each DRAM request (default = 4 data bus cycle)
-dram_data_command_freq_ratio                    2 # Fr7b58a7b43a571d37840249eedfb6b6f9  /home/min/a/ee695paa/github/gpu-app-collection/bin/9.1/release/hotspot-rodinia-3.1
Extracting PTX file and ptxas options    1: hotspot-rodinia-3.1.sm_30.ptx -arch=sm_30
Extracting PTX file and ptxas options    2: hotspot-rodinia-3.2.sm_35.ptx -arch=sm_35
Extracting PTX file and ptxas options    3: hotspot-rodinia-3.3.sm_50.ptx -arch=sm_50
Extracting PTX file and ptxas options    4: hotspot-rodinia-3.4.sm_60.ptx -arch=sm_60
equency ratio between DRAM data bus and command bus (default = 2 times, i.e. DDR)
-gpgpu_dram_timing_opt nbk=16:CCD=1:RRD=3:RCD=12:RAS=28:RP=12:RC=40: CL=12:WL=2:CDLR=3:WR=10:nbkgrp=4:CCDL=2:RTPL=3 # DRAM timing parameters = {nbk:tCCD:tRRD:tRCD:tRAS:tRP:tRC:CL:WL:tCDLR:tWR:nbkgrp:tCCDL:tRTPL}
-gpgpu_l2_rop_latency                  160 # ROP queue latency (default 85)
-dram_latency                         100 # DRAM latency (default 30)
-dram_dual_bus_interface                    1 # dual_bus_interface (default = 0) 
-dram_bnk_indexing_policy                    0 # dram_bnk_indexing_policy (0 = normal indexing, 1 = Xoring with the higher bits) (Default = 0)
-dram_bnkgrp_indexing_policy                    1 # dram_bnkgrp_indexing_policy (0 = take higher bits, 1 = take lower bits) (Default = 0)
-dram_seperate_write_queue_enable                    0 # Seperate_Write_Queue_Enable
-dram_write_queue_size             32:28:16 # Write_Queue_Size
-dram_elimnate_rw_turnaround                    0 # elimnate_rw_turnaround i.e set tWTR and tRTW = 0
-icnt_flit_size                        40 # icnt_flit_size
-gpgpu_mem_addr_mapping dramid@8;00000000.00000000.00000000.00000000.0000RRRR.RRRRRRRR.RBBBCCCB.CCCSSSSS # mapping memory address to dram model {dramid@<start bit>;<memory address map>}
-gpgpu_mem_addr_test                    0 # run sweep test to check address mapping for aliased address
-gpgpu_mem_address_mask                    1 # 0 = old addressing mask, 1 = new addressing mask, 2 = new add. mask + flipped bank sel and chip sel bits
-gpgpu_memory_partition_indexing                    2 # 0 = no indexing, 1 = bitwise xoring, 2 = IPoly, 3 = custom indexing
-gpuwattch_xml_file         gpuwattch.xml # GPUWattch XML file
-power_simulation_enabled                    0 # Turn on power simulator (1=On, 0=Off)
-power_per_cycle_dump                    0 # Dump detailed power output each cycle
-power_trace_enabled                    0 # produce a file for the power trace (1=On, 0=Off)
-power_trace_zlevel                     6 # Compression level of the power trace output log (0=no comp, 9=highest)
-steady_power_levels_enabled                    0 # produce a file for the steady power levels (1=On, 0=Off)
-steady_state_definition                  8:4 # allowed deviation:number of samples
-gpgpu_max_cycle                        0 # terminates gpu simulation early (0 = no limit)
-gpgpu_max_insn                1000000000 # terminates gpu simulation early (0 = no limit)
-gpgpu_max_cta                          0 # terminates gpu simulation early (0 = no limit)
-gpgpu_max_completed_cta                    0 # terminates gpu simulation early (0 = no limit)
-gpgpu_runtime_stat                   500 # display runtime statistics such as dram utilization {<freq>:<flag>}
-liveness_message_freq                    1 # Minimum number of seconds between simulation liveness messages (0 = always print)
-gpgpu_compute_capability_major                    7 # Major compute capability version number
-gpgpu_compute_capability_minor                    0 # Minor compute capability version number
-gpgpu_flush_l1_cache                    1 # Flush L1 cache at the end of each kernel call
-gpgpu_flush_l2_cache                    0 # Flush L2 cache at the end of each kernel call
-gpgpu_deadlock_detect                    1 # Stop the simulation at deadlock (1=on (default), 0=off)
-gpgpu_ptx_instruction_classification                    0 # if enabled will classify ptx instruction types per kernel (Max 255 kernels now)
-gpgpu_ptx_sim_mode                     0 # Select between Performance (default) or Functional simulation (1)
-gpgpu_clock_domains 1132.0:1132.0:1132.0:850.0 # Clock Domain Frequencies in MhZ {<Core Clock>:<ICNT Clock>:<L2 Clock>:<DRAM Clock>}
-gpgpu_max_concurrent_kernel                    8 # maximum kernels that can run concurrently on GPU
-gpgpu_cflog_interval                    0 # Interval between each snapshot in control flow logger
-visualizer_enabled                     0 # Turn on visualizer output (1=On, 0=Off)
-visualizer_outputfile                 NULL # Specifies the output log file for visualizer
-visualizer_zlevel                      6 # Compression level of the visualizer output log (0=no comp, 9=highest)
-gpgpu_stack_size_limit                 1024 # GPU thread stack size
-gpgpu_heap_size_limit              8388608 # GPU malloc heap size 
-gpgpu_runtime_sync_depth_limit                    2 # GPU device runtime synchronize depth
-gpgpu_runtime_pending_launch_count_limit                 2048 # GPU device runtime pending launch count
-trace_enabled                          0 # Turn on traces
-trace_components                    none # comma seperated list of traces to enable. Complete list found in trace_streams.tup. Default none
-trace_sampling_core                    0 # The core which is printed using CORE_DPRINTF. Default 0
-trace_sampling_memory_partition                   -1 # The memory partition which is printed using MEMPART_DPRINTF. Default -1 (i.e. all)
-enable_ptx_file_line_stats                    1 # Turn on PTX source line statistic profiling. (1 = On)
-ptx_line_stats_filename gpgpu_inst_stats.txt # Output file for PTX source line statistics.
-gpgpu_kernel_launch_latency                 5000 # Kernel launch latency in cycles. Default: 0
-gpgpu_cdp_enabled                      0 # Turn on CDP
-gpgpu_TB_launch_latency                    0 # thread block launch latency in cycles. Default: 0
DRAM Timing Options:
nbk                                    16 # number of banks
CCD                                     1 # column to column delay
RRD                                     3 # minimal delay between activation of rows in different banks
RCD                                    12 # row to column delay
RAS                                    28 # time needed to activate row
RP                                     12 # time needed to precharge (deactivate) row
RC                                     40 # row cycle time
CDLR                                    3 # switching from write to read (changes tWTR)
WR                                     10 # last data-in to row precharge
CL                                     12 # CAS latency
WL                                      2 # Write latency
nbkgrp                                  4 # number of bank groups
CCDL                                    2 # column to column delay between accesses to different bank groups
RTPL                                    3 # read to precharge delay between accesses to different bank groups
Total number of memory sub partition = 64
addr_dec_mask[CHIP]  = 0000000000001f00 	high:13 low:8
addr_dec_mask[BK]    = 00000000000e2000 	high:20 low:13
addr_dec_mask[ROW]   = 00000001fff00000 	high:33 low:20
addr_dec_mask[COL]   = 000000000001c0ff 	high:17 low:0
addr_dec_mask[BURST] = 000000000000001f 	high:5 low:0
sub_partition_id_mask = 0000000000002000
GPGPU-Sim uArch: clock freqs: 1132000000.000000:1132000000.000000:1132000000.000000:850000000.000000
GPGPU-Sim uArch: clock periods: 0.00000000088339222615:0.00000000088339222615:0.00000000088339222615:0.00000000117647058824
*** Initializing Memory Statistics ***
GPGPU-Sim uArch: performance model initialization complete.
self exe links to: /home/min/a/ee695paa/github/gpu-app-collection/bin/9.1/release/hotspot-rodinia-3.1
self exe links to: /home/min/a/ee695paa/github/gpu-app-collection/bin/9.1/release/hotspot-rodinia-3.1
9.1
GPGPU-Sim PTX: __cudaRegisterFatBinary, fat_cubin_handle = 1, filename=default
self exe links to: /home/min/a/ee695paa/github/gpu-app-collection/bin/9.1/release/hotspot-rodinia-3.1
Running md5sum using "md5sum /home/min/a/ee695paa/github/gpu-app-collection/bin/9.1/release/hotspot-rodinia-3.1 "
self exe links to: /home/min/a/ee695paa/github/gpu-app-collection/bin/9.1/release/hotspot-rodinia-3.1
Extracting specific PTX file named hotspot-rodinia-3.1.sm_30.ptx 
Extracting specific PTX file named hotspot-rodinia-3.2.sm_35.ptx 
Extracting specific PTX file named hotspot-rodinia-3.3.sm_50.ptx 
Extracting specific PTX file named hotspot-rodinia-3.4.sm_60.ptx 
Extracting specific PTX file named hotspot-rodinia-3.5.sm_6Extracting PTX file and ptxas options    5: hotspot-rodinia-3.5.sm_62.ptx -arch=sm_62
Extracting PTX file and ptxas options    6: hotspot-rodinia-3.6.sm_70.ptx -arch=sm_70
2.ptx 
Extracting specific PTX file named hotspot-rodinia-3.6.sm_70.ptx 
GPGPU-Sim PTX: __cudaRegisterFunction _Z14calculate_tempiPfS_S_iiiiffffff : hostFun 0x0x401320, fat_cubin_handle = 1
GPGPU-Sim PTX: Parsing hotspot-rodinia-3.1.sm_30.ptx
GPGPU-Sim PTX: allocating shared region for "_Z14calculate_tempiPfS_S_iiiiffffff$__cuda_local_var_14302_39_non_const_temp_on_cuda" from 0x0 to 0x400 (shared memory space)
GPGPU-Sim PTX: allocating shared region for "_Z14calculate_tempiPfS_S_iiiiffffff$__cuda_local_var_14303_39_non_const_power_on_cuda" from 0x400 to 0x800 (shared memory space)
GPGPU-Sim PTX: allocating shared region for "_Z14calculate_tempiPfS_S_iiiiffffff$__cuda_local_var_14304_39_non_const_temp_t" from 0x800 to 0xc00 (shared memory space)
GPGPU-Sim PTX: instruction assembly for function '_Z14calculate_tempiPfS_S_iiiiffffff'...   done.
GPGPU-Sim PTX: finished parsing EMBEDDED .ptx file hotspot-rodinia-3.1.sm_30.ptx
GPGPU-Sim PTX: Parsing hotspot-rodinia-3.2.sm_35.ptx
GPGPU-Sim PTX: Warning %p0 was declared previous at hotspot-rodinia-3.1.sm_30.ptx:35 skipping new declaration
GPGPU-Sim PTX: Warning %p1 was declared previous at hotspot-rodinia-3.1.sm_30.ptx:35 skipping new declaration
GPGPU-Sim PTX: Warning %p2 was declared previous at hotspot-rodinia-3.1.sm_30.ptx:35 skipping new declaration
GPGPU-Sim PTX: Warning %p3 was declared previous at hotspot-rodinia-3.1.sm_30.ptx:35 skipping new declaration
GPGPU-Sim PTX: Warning %p4 was declared previous at hotspot-rodinia-3.1.sm_30.ptx:35 skipping new declaration
GPGPU-Sim PTX: Warning %p5 was declared previous at hotspot-rodinia-3.1.sm_30.ptx:35 skipping new declaration
GPGPU-Sim PTX: Warning %p6 was declared previous at hotspot-rodinia-3.1.sm_30.ptx:35 skipping new declaration
GPGPU-Sim PTX: Warning %p7 was declared previous at hotspot-rodinia-3.1.sm_30.ptx:35 skipping new declaration
GPGPU-Sim PTX: Warning %p8 was declared previous at hotspot-rodinia-3.1.sm_30.ptx:35 skipping new declaration
GPGPU-Sim PTX: Warning %p9 was declared previous at hotspot-rodinia-3.1.sm_30.ptx:35 skipping new declaration
GPGPU-Sim PTX: Warning %p10 was declared previous at hotspot-rodinia-3.1.sm_30.ptx:35 skipping new declaration
GPGPU-Sim PTX: Warning %p11 was declared previous at hotspot-rodinia-3.1.sm_30.ptx:35 skipping new declaration
GPGPU-Sim PTX: Warning %p12 was declared previous at hotspot-rodinia-3.1.sm_30.ptx:35 skipping new declaration
GPGPU-Sim PTX: Warning %p13 was declared previous at hotspot-rodinia-3.1.sm_30.ptx:35 skipping new declaration
GPGPU-Sim PTX: Warning %p14 was declared previous at hotspot-rodinia-3.1.sm_30.ptx:35 skipping new declaration
GPGPU-Sim PTX: Warning %p15 was declared previous at hotspot-rodinia-3.1.sm_30.ptx:35 skipping new declaration
GPGPU-Sim PTX: Warning %p16 was declared previous at hotspot-rodinia-3.1.sm_30.ptx:35 skipping new declaration
GPGPU-Sim PTX: Warning %p17 was declared previous at hotspot-rodinia-3.1.sm_30.ptx:35 skipping new declaration
GPGPU-Sim PTX: Warning %p18 was declared previous at hotspot-rodinia-3.1.sm_30.ptx:35 skipping new declaration
GPGPU-Sim PTX: Warning %p19 was declared previous at hotspot-rodinia-3.1.sm_30.ptx:35 skipping new declaration
GPGPU-Sim PTX: Warning %p20 was declared previous at hotspot-rodinia-3.1.sm_30.ptx:35 skipping new declaration
GPGPU-Sim PTX: Warning %p21 was declared previous at hotspot-rodinia-3.1.sm_30.ptx:35 skipping new declaration
GPGPU-Sim PTX: Warning %p22 was declared previous at hotspot-rodinia-3.1.sm_30.ptx:35 skipping new declaration
GPGPU-Sim PTX: Warning %p23 was declared previous at hotspot-rodinia-3.1.sm_30.ptx:35 skipping new declaration
GPGPU-Sim PTX: Warning %p24 was declared previous at hotspot-rodinia-3.1.sm_30.ptx:35 skipping new declaration
GPGPU-Sim PTX: Warning %p25 was declared previous at hotspot-rodinia-3.1.sm_30.ptx:35 skipping new declaration
GPGPU-Sim PTX: Warning %p26 was declared previous at hotspot-rodinia-3.1.sm_30.ptx:35 skipping new declaration
GPGPU-Sim PTX: Warning %p27 was declared previous at hotspot-rodinia-3.1.sm_30.ptx:35 skipping new declaration
GPGPU-Sim PTX: Warning %p28 was declared previous at hotspot-rodinia-3.1.sm_30.ptx:35 skipping new declaration
GPGPU-Sim PTX: Warning %p29 was declared previous at hotspot-rodinia-3.1.sm_30.ptx:35 skipping new declaration
GPGPU-Sim PTX: Warning %p30 was declared previous at hotspot-rodinia-3.1.sm_30.ptx:35 skipping new declaration
GPGPU-Sim PTX: Warning %rs0 was declared previous at hotspot-rodinia-3.1.sm_30.ptx:36 skipping new declaration
GPGPU-Sim PTX: Warning %rs1 was declared previous at hotspot-rodinia-3.1.sm_30.ptx:36 skipping new declaration
GPGPU-Sim PTX: Warning %rs2 was declared previous at hotspot-rodinia-3.1.sm_30.ptx:36 skipping new declaration
GPGPU-Sim PTX: Warning %rs3 was declared previous at hotspot-rodinia-3.1.sm_30.ptx:36 skipping new declaration
GPGPU-Sim PTX: Warning %rs4 was declared previous at hotspot-rodinia-3.1.sm_30.ptx:36 skipping new declaration
GPGPU-Sim PTX: Warning %rs5 was declared previous at hotspot-rodinia-3.1.sm_30.ptx:36 skipping new declaration
GPGPU-Sim PTX: Warning %rs6 was declared previous at hotspot-rodinia-3.1.sm_30.ptx:36 skipping new declaration
GPGPU-Sim PTX: Warning %rs7 was declared previous at hotspot-rodinia-3.1.sm_30.ptx:36 skipping new declaration
GPGPU-Sim PTX: Warning %rs8 was declared previous at hotspot-rodinia-3.1.sm_30.ptx:36 skipping new declaration
GPGPU-Sim PTX: Warning %rs9 was declared previous at hotspot-rodinia-3.1.sm_30.ptx:36 skipping new declaration
GPGPU-Sim PTX: Warning %f0 was declared previous at hotspot-rodinia-3.1.sm_30.ptx:37 skipping new declaration
GPGPU-Sim PTX: Warning %f1 was declared previous at hotspot-rodinia-3.1.sm_30.ptx:37 skipping new declaration
GPGPU-Sim PTX: Warning %f2 was declared previous at hotspot-rodinia-3.1.sm_30.ptx:37 skipping new declaration
GPGPU-Sim PTX: Warning %f3 was declared previous at hotspot-rodinia-3.1.sm_30.ptx:37 skipping new declaration
GPGPU-Sim PTX: Warning %f4 was declared previous at hotspot-rodinia-3.1.sm_30.ptx:37 skipping new declaration
GPGPU-Sim PTX: Warning %f5 was declared previous at hotspot-rodinia-3.1.sm_30.ptx:37 skipping new declaration
GPGPU-Sim PTX: Warning %f6 was declared previous at hotspot-rodinia-3.1.sm_30.ptx:37 skipping new declaration
GPGPU-Sim PTX: Warning %f7 was declared previous at hotspot-rodinia-3.1.sm_30.ptx:37 skipping new declaration
GPGPU-Sim PTX: Warning %f8 was declared previous at hotspot-rodinia-3.1.sm_30.ptx:37 skipping new declaration
GPGPU-Sim PTX: Warning %f9 was declared previous at hotspot-rodinia-3.1.sm_30.ptx:37 skipping new declaration
GPGPU-Sim PTX: Warning %f10 was declared previous at hotspot-rodinia-3.1.sm_30.ptx:37 skipping new declaration
GPGPU-Sim PTX: Warning %f11 was declared previous at hotspot-rodinia-3.1.sm_30.ptx:37 skipping new declaration
GPGPU-Sim PTX: Warning %f12 was declared previous at hotspot-rodinia-3.1.sm_30.ptx:37 skipping new declaration
GPGPU-Sim PTX: Warning %f13 was declared previous at hotspot-rodinia-3.1.sm_30.ptx:37 skipping new declaration
GPGPU-Sim PTX: Warning %f14 was declared previous at hotspot-rodinia-3.1.sm_30.ptx:37 skipping new declaration
GPGPU-Sim PTX: Warning %f15 was declared previous at hotspot-rodinia-3.1.sm_30.ptx:37 skipping new declaration
GPGPU-Sim PTX: Warning %f16 was declared previous at hotspot-rodinia-3.1.sm_30.ptx:37 skipping new declaration
GPGPU-Sim PTX: Warning %f17 was declared previous at hotspot-rodinia-3.1.sm_30.ptx:37 skipping new declaration
GPGPU-Sim PTX: Warning %f18 was declared previous at hotspot-rodinia-3.1.sm_30.ptx:37 skipping new declaration
GPGPU-Sim PTX: Warning %f19 was declared previous at hotspot-rodinia-3.1.sm_30.ptx:37 skipping new declaration
GPGPU-Sim PTX: Warning %f20 was declared previous at hotspot-rodinia-3.1.sm_30.ptx:37 skipping new declaration
GPGPU-Sim PTX: Warning %f21 was declared previous at hotspot-rodinia-3.1.sm_30.ptx:37 skipping new declaration
GPGPU-Sim PTX: Warning %f22 was declared previous at hotspot-rodinia-3.1.sm_30.ptx:37 skipping new declaration
GPGPU-Sim PTX: Warning %f23 was declared previous at hotspot-rodinia-3.1.sm_30.ptx:37 skipping new declaration
GPGPU-Sim PTX: Warning %f24 was declared previous at hotspot-rodinia-3.1.sm_30.ptx:37 skipping new declaration
GPGPU-Sim PTX: Warning %f25 was declared previous at hotspot-rodinia-3.1.sm_30.ptx:37 skipping new declaration
GPGPU-Sim PTX: Warning %r0 was declared previous at hotspot-rodinia-3.1.sm_30.ptx:38 skipping new declaration
GPGPU-Sim PTX: Warning %r1 was declared previous at hotspot-rodinia-3.1.sm_30.ptx:38 skipping new declaration
GPGPU-Sim PTX: Warning %r2 was declared previous at hotspot-rodinia-3.1.sm_30.ptx:38 skipping new declaration
GPGPU-Sim PTX: Warning %r3 was declared previous at hotspot-rodinia-3.1.sm_30.ptx:38 skipping new declaration
GPGPU-Sim PTX: Warning %r4 was declared previous at hotspot-rodinia-3.1.sm_30.ptx:38 skipping new declaration
GPGPU-Sim PTX: Warning %r5 was declared previous at hotspot-rodinia-3.1.sm_30.ptx:38 skipping new declaration
GPGPU-Sim PTX: Warning %r6 was declared previous at hotspot-rodinia-3.1.sm_30.ptx:38 skipping new declaration
GPGPU-Sim PTX: Warning %r7 was declared previous at hotspot-rodinia-3.1.sm_30.ptx:38 skipping new declaration
GPGPU-Sim PTX: Warning %r8 was declared previous at hotspot-rodinia-3.1.sm_30.ptx:38 skipping new declaration
GPGPU-Sim PTX: Warning %r9 was declared previous at hotspot-rodinia-3.1.sm_30.ptx:38 skipping new declaration
GPGPU-Sim PTX: Warning %r10 was declared previous at hotspot-rodinia-3.1.sm_30.ptx:38 skipping new declaration
GPGPU-Sim PTX: Warning %r11 was declared previous at hotspot-rodinia-3.1.sm_30.ptx:38 skipping new declaration
GPGPU-Sim PTX: Warning %r12 was declared previous at hotspot-rodinia-3.1.sm_30.ptx:38 skipping new declaration
GPGPU-Sim PTX: Warning %r13 was declared previous at hotspot-rodinia-3.1.sm_30.ptx:38 skipping new declaration
GPGPU-Sim PTX: Warning %r14 was declared previous at hotspot-rodinia-3.1.sm_30.ptx:38 skipping new declaration
GPGPU-Sim PTX: Warning %r15 was declared previous at hotspot-rodinia-3.1.sm_30.ptx:38 skipping new declaration
GPGPU-Sim PTX: Warning %r16 was declared previous at hotspot-rodinia-3.1.sm_30.ptx:38 skipping new declaration
GPGPU-Sim PTX: Warning %r17 was declared previous at hotspot-rodinia-3.1.sm_30.ptx:38 skipping new declaration
GPGPU-Sim PTX: Warning %r18 was declared previous at hotspot-rodinia-3.1.sm_30.ptx:38 skipping new declaration
GPGPU-Sim PTX: Warning %r19 was declared previous at hotspot-rodinia-3.1.sm_30.ptx:38 skipping new declaration
GPGPU-Sim PTX: Warning %r20 was declared previous at hotspot-rodinia-3.1.sm_30.ptx:38 skipping new declaration
GPGPU-Sim PTX: Warning %r21 was declared previous at hotspot-rodinia-3.1.sm_30.ptx:38 skipping new declaration
GPGPU-Sim PTX: Warning %r22 was declared previous at hotspot-rodinia-3.1.sm_30.ptx:38 skipping new declaration
GPGPU-Sim PTX: Warning %r23 was declared previous at hotspot-rodinia-3.1.sm_30.ptx:38 skipping new declaration
GPGPU-Sim PTX: Warning %r24 was declared previous at hotspot-rodinia-3.1.sm_30.ptx:38 skipping new declaration
GPGPU-Sim PTX: Warning %r25 was declared previous at hotspot-rodinia-3.1.sm_30.ptx:38 skipping new declaration
GPGPU-Sim PTX: Warning %r26 was declared previous at hotspot-rodinia-3.1.sm_30.ptx:38 skipping new declaration
GPGPU-Sim PTX: Warning %r27 was declared previous at hotspot-rodinia-3.1.sm_30.ptx:38 skipping new declaration
GPGPU-Sim PTX: Warning %r28 was declared previous at hotspot-rodinia-3.1.sm_30.ptx:38 skipping new declaration
GPGPU-Sim PTX: Warning %r29 was declared previous at hotspot-rodinia-3.1.sm_30.ptx:38 skipping new declaration
GPGPU-Sim PTX: Warning %r30 was declared previous at hotspot-rodinia-3.1.sm_30.ptx:38 skipping new declaration
GPGPU-Sim PTX: Warning %r31 was declared previous at hotspot-rodinia-3.1.sm_30.ptx:38 skipping new declaration
GPGPU-Sim PTX: Warning %r32 was declared previous at hotspot-rodinia-3.1.sm_30.ptx:38 skipping new declaration
GPGPU-Sim PTX: Warning %r33 was declared previous at hotspot-rodinia-3.1.sm_30.ptx:38 skipping new declaration
GPGPU-Sim PTX: Warning %r34 was declared previous at hotspot-rodinia-3.1.sm_30.ptx:38 skipping new declaration
GPGPU-Sim PTX: Warning %r35 was declared previous at hotspot-rodinia-3.1.sm_30.ptx:38 skipping new declaration
GPGPU-Sim PTX: Warning %r36 was declared previous at hotspot-rodinia-3.1.sm_30.ptx:38 skipping new declaration
GPGPU-Sim PTX: Warning %r37 was declared previous at hotspot-rodinia-3.1.sm_30.ptx:38 skipping new declaration
GPGPU-Sim PTX: Warning %r38 was declared previous at hotspot-rodinia-3.1.sm_30.ptx:38 skipping new declaration
GPGPU-Sim PTX: Warning %r39 was declared previous at hotspot-rodinia-3.1.sm_30.ptx:38 skipping new declaration
GPGPU-Sim PTX: Warning %r40 was declared previous at hotspot-rodinia-3.1.sm_30.ptx:38 skipping new declaration
GPGPU-Sim PTX: Warning %r41 was declared previous at hotspot-rodinia-3.1.sm_30.ptx:38 skipping new declaration
GPGPU-Sim PTX: Warning %r42 was declared previous at hotspot-rodinia-3.1.sm_30.ptx:38 skipping new declaration
GPGPU-Sim PTX: Warning %r43 was declared previous at hotspot-rodinia-3.1.sm_30.ptx:38 skipping new declaration
GPGPU-Sim PTX: Warning %r44 was declared previous at hotspot-rodinia-3.1.sm_30.ptx:38 skipping new declaration
GPGPU-Sim PTX: Warning %r45 was declared previous at hotspot-rodinia-3.1.sm_30.ptx:38 skipping new declaration
GPGPU-Sim PTX: Warning %r46 was declared previous at hotspot-rodinia-3.1.sm_30.ptx:38 skipping new declaration
GPGPU-Sim PTX: Warning %r47 was declared previous at hotspot-rodinia-3.1.sm_30.ptx:38 skipping new declaration
GPGPU-Sim PTX: Warning %r48 was declared previous at hotspot-rodinia-3.1.sm_30.ptx:38 skipping new declaration
GPGPU-Sim PTX: Warning %r49 was declared previous at hotspot-rodinia-3.1.sm_30.ptx:38 skipping new declaration
GPGPU-Sim PTX: Warning %r50 was declared previous at hotspot-rodinia-3.1.sm_30.ptx:38 skipping new declaration
GPGPU-Sim PTX: Warning %r51 was declared previous at hotspot-rodinia-3.1.sm_30.ptx:38 skipping new declaration
GPGPU-Sim PTX: Warning %r52 was declared previous at hotspot-rodinia-3.1.sm_30.ptx:38 skipping new declaration
GPGPU-Sim PTX: Warning %r53 was declared previous at hotspot-rodinia-3.1.sm_30.ptx:38 skipping new declaration
GPGPU-Sim PTX: Warning %r54 was declared previous at hotspot-rodinia-3.1.sm_30.ptx:38 skipping new declaration
GPGPU-Sim PTX: Warning %r55 was declared previous at hotspot-rodinia-3.1.sm_30.ptx:38 skipping new declaration
GPGPU-Sim PTX: Warning %r56 was declared previous at hotspot-rodinia-3.1.sm_30.ptx:38 skipping new declaration
GPGPU-Sim PTX: Warning %r57 was declared previous at hotspot-rodinia-3.1.sm_30.ptx:38 skipping new declaration
GPGPU-Sim PTX: Warning %r58 was declared previous at hotspot-rodinia-3.1.sm_30.ptx:38 skipping new declaration
GPGPU-Sim PTX: Warning %r59 was declared previous at hotspot-rodinia-3.1.sm_30.ptx:38 skipping new declaration
GPGPU-Sim PTX: Warning %r60 was declared previous at hotspot-rodinia-3.1.sm_30.ptx:38 skipping new declaration
GPGPU-Sim PTX: Warning %r61 was declared previous at hotspot-rodinia-3.1.sm_30.ptx:38 skipping new declaration
GPGPU-Sim PTX: Warning %r62 was declared previous at hotspot-rodinia-3.1.sm_30.ptx:38 skipping new declaration
GPGPU-Sim PTX: Warning %r63 was declared previous at hotspot-rodinia-3.1.sm_30.ptx:38 skipping new declaration
GPGPU-Sim PTX: Warning %r64 was declared previous at hotspot-rodinia-3.1.sm_30.ptx:38 skipping new declaration
GPGPU-Sim PTX: Warning %r65 was declared previous at hotspot-rodinia-3.1.sm_30.ptx:38 skipping new declaration
GPGPU-Sim PTX: Warning %r66 was declared previous at hotspot-rodinia-3.1.sm_30.ptx:38 skipping new declaration
GPGPU-Sim PTX: Warning %r67 was declared previous at hotspot-rodinia-3.1.sm_30.ptx:38 skipping new declaration
GPGPU-Sim PTX: Warning %r68 was declared previous at hotspot-rodinia-3.1.sm_30.ptx:38 skipping new declaration
GPGPU-Sim PTX: Warning %r69 was declared previous at hotspot-rodinia-3.1.sm_30.ptx:38 skipping new declaration
GPGPU-Sim PTX: Warning %r70 was declared previous at hotspot-rodinia-3.1.sm_30.ptx:38 skipping new declaration
GPGPU-Sim PTX: Warning %r71 was declared previous at hotspot-rodinia-3.1.sm_30.ptx:38 skipping new declaration
GPGPU-Sim PTX: Warning %r72 was declared previous at hotspot-rodinia-3.1.sm_30.ptx:38 skipping new declaration
GPGPU-Sim PTX: Warning %r73 was declared previous at hotspot-rodinia-3.1.sm_30.ptx:38 skipping new declaration
GPGPU-Sim PTX: Warning %r74 was declared previous at hotspot-rodinia-3.1.sm_30.ptx:38 skipping new declaration
GPGPU-Sim PTX: Warning %r75 was declared previous at hotspot-rodinia-3.1.sm_30.ptx:38 skipping new declaration
GPGPU-Sim PTX: Warning %r76 was declared previous at hotspot-rodinia-3.1.sm_30.ptx:38 skipping new declaration
GPGPU-Sim PTX: Warning %r77 was declared previous at hotspot-rodinia-3.1.sm_30.ptx:38 skipping new declaration
GPGPU-Sim PTX: Warning %r78 was declared previous at hotspot-rodinia-3.1.sm_30.ptx:38 skipping new declaration
GPGPU-Sim PTX: Warning %r79 was declared previous at hotspot-rodinia-3.1.sm_30.ptx:38 skipping new declaration
GPGPU-Sim PTX: Warning %r80 was declared previous at hotspot-rodinia-3.1.sm_30.ptx:38 skipping new declaration
GPGPU-Sim PTX: Warning %r81 was declared previous at hotspot-rodinia-3.1.sm_30.ptx:38 skipping new declaration
GPGPU-Sim PTX: Warning %r82 was declared previous at hotspot-rodinia-3.1.sm_30.ptx:38 skipping new declaration
GPGPU-Sim PTX: Warning %r83 was declared previous at hotspot-rodinia-3.1.sm_30.ptx:38 skipping new declaration
GPGPU-Sim PTX: Warning %r84 was declared previous at hotspot-rodinia-3.1.sm_30.ptx:38 skipping new declaration
GPGPU-Sim PTX: Warning %fd0 was declared previous at hotspot-rodinia-3.1.sm_30.ptx:39 skipping new declaration
GPGPU-Sim PTX: Warning %fd1 was declared previous at hotspot-rodinia-3.1.sm_30.ptx:39 skipping new declaration
GPGPU-Sim PTX: Warning %fd2 was declared previous at hotspot-rodinia-3.1.sm_30.ptx:39 skipping new declaration
GPGPU-Sim PTX: Warning %fd3 was declared previous at hotspot-rodinia-3.1.sm_30.ptx:39 skipping new declaration
GPGPU-Sim PTX: Warning %fd4 was declared previous at hotspot-rodinia-3.1.sm_30.ptx:39 skipping new declaration
GPGPU-Sim PTX: Warning %fd5 was declared previous at hotspot-rodinia-3.1.sm_30.ptx:39 skipping new declaration
GPGPU-Sim PTX: Warning %fd6 was declared previous at hotspot-rodinia-3.1.sm_30.ptx:39 skipping new declaration
GPGPU-Sim PTX: Warning %fd7 was declared previous at hotspot-rodinia-3.1.sm_30.ptx:39 skipping new declaration
GPGPU-Sim PTX: Warning %fd8 was declared previous at hotspot-rodinia-3.1.sm_30.ptx:39 skipping new declaration
GPGPU-Sim PTX: Warning %fd9 was declared previous at hotspot-rodinia-3.1.sm_30.ptx:39 skipping new declaration
GPGPU-Sim PTX: Warning %fd10 was declared previous at hotspot-rodinia-3.1.sm_30.ptx:39 skipping new declaration
GPGPU-Sim PTX: Warning %fd11 was declared previous at hotspot-rodinia-3.1.sm_30.ptx:39 skipping new declaration
GPGPU-Sim PTX: Warning %fd12 was declared previous at hotspot-rodinia-3.1.sm_30.ptx:39 skipping new declaration
GPGPU-Sim PTX: Warning %fd13 was declared previous at hotspot-rodinia-3.1.sm_30.ptx:39 skipping new declaration
GPGPU-Sim PTX: Warning %fd14 was declared previous at hotspot-rodinia-3.1.sm_30.ptx:39 skipping new declaration
GPGPU-Sim PTX: Warning %fd15 was declared previous at hotspot-rodinia-3.1.sm_30.ptx:39 skipping new declaration
GPGPU-Sim PTX: Warning %rd0 was declared previous at hotspot-rodinia-3.1.sm_30.ptx:40 skipping new declaration
GPGPU-Sim PTX: Warning %rd1 was declared previous at hotspot-rodinia-3.1.sm_30.ptx:40 skipping new declaration
GPGPU-Sim PTX: Warning %rd2 was declared previous at hotspot-rodinia-3.1.sm_30.ptx:40 skipping new declaration
GPGPU-Sim PTX: Warning %rd3 was declared previous at hotspot-rodinia-3.1.sm_30.ptx:40 skipping new declaration
GPGPU-Sim PTX: Warning %rd4 was declared previous at hotspot-rodinia-3.1.sm_30.ptx:40 skipping new declaration
GPGPU-Sim PTX: Warning %rd5 was declared previous at hotspot-rodinia-3.1.sm_30.ptx:40 skipping new declaration
GPGPU-Sim PTX: Warning %rd6 was declared previous at hotspot-rodinia-3.1.sm_30.ptx:40 skipping new declaration
GPGPU-Sim PTX: Warning %rd7 was declared previous at hotspot-rodinia-3.1.sm_30.ptx:40 skipping new declaration
GPGPU-Sim PTX: Warning %rd8 was declared previous at hotspot-rodinia-3.1.sm_30.ptx:40 skipping new declaration
GPGPU-Sim PTX: Warning %rd9 was declared previous at hotspot-rodinia-3.1.sm_30.ptx:40 skipping new declaration
GPGPU-Sim PTX: Warning %rd10 was declared previous at hotspot-rodinia-3.1.sm_30.ptx:40 skipping new declaration
GPGPU-Sim PTX: Warning %rd11 was declared previous at hotspot-rodinia-3.1.sm_30.ptx:40 skipping new declaration
GPGPU-Sim PTX: allocating shared region for "_Z14calculate_tempiPfS_S_iiiiffffff$__cuda_local_var_14882_39_non_const_temp_on_cuda" from 0xc00 to 0x1000 (shared memory space)
GPGPU-Sim PTX: allocating shared region for "_Z14calculate_tempiPfS_S_iiiiffffff$__cuda_local_var_14883_39_non_const_power_on_cuda" from 0x1000 to 0x1400 (shared memory space)
GPGPU-Sim PTX: allocating shared region for "_Z14calculate_tempiPfS_S_iiiiffffff$__cuda_local_var_14884_39_non_const_temp_t" from 0x1400 to 0x1800 (shared memory space)
GPGPU-Sim PTX: instruction assembly for function '_Z14calculate_tempiPfS_S_iiiiffffff'...   done.
GPGPU-Sim PTX: finished parsing EMBEDDED .ptx file hotspot-rodinia-3.2.sm_35.ptx
GPGPU-Sim PTX: Parsing hotspot-rodinia-3.3.sm_50.ptx
GPGPU-Sim PTX: Warning %p0 was declared previous at hotspot-rodinia-3.1.sm_30.ptx:35 skipping new declaration
GPGPU-Sim PTX: Warning %p1 was declared previous at hotspot-rodinia-3.1.sm_30.ptx:35 skipping new declaration
GPGPU-Sim PTX: Warning %p2 was declared previous at hotspot-rodinia-3.1.sm_30.ptx:35 skipping new declaration
GPGPU-Sim PTX: Warning %p3 was declared previous at hotspot-rodinia-3.1.sm_30.ptx:35 skipping new declaration
GPGPU-Sim PTX: Warning %p4 was declared previous at hotspot-rodinia-3.1.sm_30.ptx:35 skipping new declaration
GPGPU-Sim PTX: Warning %p5 was declared previous at hotspot-rodinia-3.1.sm_30.ptx:35 skipping new declaration
GPGPU-Sim PTX: Warning %p6 was declared previous at hotspot-rodinia-3.1.sm_30.ptx:35 skipping new declaration
GPGPU-Sim PTX: Warning %p7 was declared previous at hotspot-rodinia-3.1.sm_30.ptx:35 skipping new declaration
GPGPU-Sim PTX: Warning %p8 was declared previous at hotspot-rodinia-3.1.sm_30.ptx:35 skipping new declaration
GPGPU-Sim PTX: Warning %p9 was declared previous at hotspot-rodinia-3.1.sm_30.ptx:35 skipping new declaration
GPGPU-Sim PTX: Warning %p10 was declared previous at hotspot-rodinia-3.1.sm_30.ptx:35 skipping new declaration
GPGPU-Sim PTX: Warning %p11 was declared previous at hotspot-rodinia-3.1.sm_30.ptx:35 skipping new declaration
GPGPU-Sim PTX: Warning %p12 was declared previous at hotspot-rodinia-3.1.sm_30.ptx:35 skipping new declaration
GPGPU-Sim PTX: Warning %p13 was declared previous at hotspot-rodinia-3.1.sm_30.ptx:35 skipping new declaration
GPGPU-Sim PTX: Warning %p14 was declared previous at hotspot-rodinia-3.1.sm_30.ptx:35 skipping new declaration
GPGPU-Sim PTX: Warning %p15 was declared previous at hotspot-rodinia-3.1.sm_30.ptx:35 skipping new declaration
GPGPU-Sim PTX: Warning %p16 was declared previous at hotspot-rodinia-3.1.sm_30.ptx:35 skipping new declaration
GPGPU-Sim PTX: Warning %p17 was declared previous at hotspot-rodinia-3.1.sm_30.ptx:35 skipping new declaration
GPGPU-Sim PTX: Warning %p18 was declared previous at hotspot-rodinia-3.1.sm_30.ptx:35 skipping new declaration
GPGPU-Sim PTX: Warning %p19 was declared previous at hotspot-rodinia-3.1.sm_30.ptx:35 skipping new declaration
GPGPU-Sim PTX: Warning %p20 was declared previous at hotspot-rodinia-3.1.sm_30.ptx:35 skipping new declaration
GPGPU-Sim PTX: Warning %p21 was declared previous at hotspot-rodinia-3.1.sm_30.ptx:35 skipping new declaration
GPGPU-Sim PTX: Warning %p22 was declared previous at hotspot-rodinia-3.1.sm_30.ptx:35 skipping new declaration
GPGPU-Sim PTX: Warning %p23 was declared previous at hotspot-rodinia-3.1.sm_30.ptx:35 skipping new declaration
GPGPU-Sim PTX: Warning %p24 was declared previous at hotspot-rodinia-3.1.sm_30.ptx:35 skipping new declaration
GPGPU-Sim PTX: Warning %p25 was declared previous at hotspot-rodinia-3.1.sm_30.ptx:35 skipping new declaration
GPGPU-Sim PTX: Warning %p26 was declared previous at hotspot-rodinia-3.1.sm_30.ptx:35 skipping new declaration
GPGPU-Sim PTX: Warning %p27 was declared previous at hotspot-rodinia-3.1.sm_30.ptx:35 skipping new declaration
GPGPU-Sim PTX: Warning %p28 was declared previous at hotspot-rodinia-3.1.sm_30.ptx:35 skipping new declaration
GPGPU-Sim PTX: Warning %p29 was declared previous at hotspot-rodinia-3.1.sm_30.ptx:35 skipping new declaration
GPGPU-Sim PTX: Warning %p30 was declared previous at hotspot-rodinia-3.1.sm_30.ptx:35 skipping new declaration
GPGPU-Sim PTX: Warning %rs0 was declared previous at hotspot-rodinia-3.1.sm_30.ptx:36 skipping new declaration
GPGPU-Sim PTX: Warning %rs1 was declared previous at hotspot-rodinia-3.1.sm_30.ptx:36 skipping new declaration
GPGPU-Sim PTX: Warning %rs2 was declared previous at hotspot-rodinia-3.1.sm_30.ptx:36 skipping new declaration
GPGPU-Sim PTX: Warning %rs3 was declared previous at hotspot-rodinia-3.1.sm_30.ptx:36 skipping new declaration
GPGPU-Sim PTX: Warning %rs4 was declared previous at hotspot-rodinia-3.1.sm_30.ptx:36 skipping new declaration
GPGPU-Sim PTX: Warning %rs5 was declared previous at hotspot-rodinia-3.1.sm_30.ptx:36 skipping new declaration
GPGPU-Sim PTX: Warning %rs6 was declared previous at hotspot-rodinia-3.1.sm_30.ptx:36 skipping new declaration
GPGPU-Sim PTX: Warning %rs7 was declared previous at hotspot-rodinia-3.1.sm_30.ptx:36 skipping new declaration
GPGPU-Sim PTX: Warning %rs8 was declared previous at hotspot-rodinia-3.1.sm_30.ptx:36 skipping new declaration
GPGPU-Sim PTX: Warning %rs9 was declared previous at hotspot-rodinia-3.1.sm_30.ptx:36 skipping new declaration
GPGPU-Sim PTX: Warning %f0 was declared previous at hotspot-rodinia-3.1.sm_30.ptx:37 skipping new declaration
GPGPU-Sim PTX: Warning %f1 was declared previous at hotspot-rodinia-3.1.sm_30.ptx:37 skipping new declaration
GPGPU-Sim PTX: Warning %f2 was declared previous at hotspot-rodinia-3.1.sm_30.ptx:37 skipping new declaration
GPGPU-Sim PTX: Warning %f3 was declared previous at hotspot-rodinia-3.1.sm_30.ptx:37 skipping new declaration
GPGPU-Sim PTX: Warning %f4 was declared previous at hotspot-rodinia-3.1.sm_30.ptx:37 skipping new declaration
GPGPU-Sim PTX: Warning %f5 was declared previous at hotspot-rodinia-3.1.sm_30.ptx:37 skipping new declaration
GPGPU-Sim PTX: Warning %f6 was declared previous at hotspot-rodinia-3.1.sm_30.ptx:37 skipping new declaration
GPGPU-Sim PTX: Warning %f7 was declared previous at hotspot-rodinia-3.1.sm_30.ptx:37 skipping new declaration
GPGPU-Sim PTX: Warning %f8 was declared previous at hotspot-rodinia-3.1.sm_30.ptx:37 skipping new declaration
GPGPU-Sim PTX: Warning %f9 was declared previous at hotspot-rodinia-3.1.sm_30.ptx:37 skipping new declaration
GPGPU-Sim PTX: Warning %f10 was declared previous at hotspot-rodinia-3.1.sm_30.ptx:37 skipping new declaration
GPGPU-Sim PTX: Warning %f11 was declared previous at hotspot-rodinia-3.1.sm_30.ptx:37 skipping new declaration
GPGPU-Sim PTX: Warning %f12 was declared previous at hotspot-rodinia-3.1.sm_30.ptx:37 skipping new declaration
GPGPU-Sim PTX: Warning %f13 was declared previous at hotspot-rodinia-3.1.sm_30.ptx:37 skipping new declaration
GPGPU-Sim PTX: Warning %f14 was declared previous at hotspot-rodinia-3.1.sm_30.ptx:37 skipping new declaration
GPGPU-Sim PTX: Warning %f15 was declared previous at hotspot-rodinia-3.1.sm_30.ptx:37 skipping new declaration
GPGPU-Sim PTX: Warning %f16 was declared previous at hotspot-rodinia-3.1.sm_30.ptx:37 skipping new declaration
GPGPU-Sim PTX: Warning %f17 was declared previous at hotspot-rodinia-3.1.sm_30.ptx:37 skipping new declaration
GPGPU-Sim PTX: Warning %f18 was declared previous at hotspot-rodinia-3.1.sm_30.ptx:37 skipping new declaration
GPGPU-Sim PTX: Warning %f19 was declared previous at hotspot-rodinia-3.1.sm_30.ptx:37 skipping new declaration
GPGPU-Sim PTX: Warning %f20 was declared previous at hotspot-rodinia-3.1.sm_30.ptx:37 skipping new declaration
GPGPU-Sim PTX: Warning %f21 was declared previous at hotspot-rodinia-3.1.sm_30.ptx:37 skipping new declaration
GPGPU-Sim PTX: Warning %f22 was declared previous at hotspot-rodinia-3.1.sm_30.ptx:37 skipping new declaration
GPGPU-Sim PTX: Warning %f23 was declared previous at hotspot-rodinia-3.1.sm_30.ptx:37 skipping new declaration
GPGPU-Sim PTX: Warning %f24 was declared previous at hotspot-rodinia-3.1.sm_30.ptx:37 skipping new declaration
GPGPU-Sim PTX: Warning %f25 was declared previous at hotspot-rodinia-3.1.sm_30.ptx:37 skipping new declaration
GPGPU-Sim PTX: Warning %r0 was declared previous at hotspot-rodinia-3.1.sm_30.ptx:38 skipping new declaration
GPGPU-Sim PTX: Warning %r1 was declared previous at hotspot-rodinia-3.1.sm_30.ptx:38 skipping new declaration
GPGPU-Sim PTX: Warning %r2 was declared previous at hotspot-rodinia-3.1.sm_30.ptx:38 skipping new declaration
GPGPU-Sim PTX: Warning %r3 was declared previous at hotspot-rodinia-3.1.sm_30.ptx:38 skipping new declaration
GPGPU-Sim PTX: Warning %r4 was declared previous at hotspot-rodinia-3.1.sm_30.ptx:38 skipping new declaration
GPGPU-Sim PTX: Warning %r5 was declared previous at hotspot-rodinia-3.1.sm_30.ptx:38 skipping new declaration
GPGPU-Sim PTX: Warning %r6 was declared previous at hotspot-rodinia-3.1.sm_30.ptx:38 skipping new declaration
GPGPU-Sim PTX: Warning %r7 was declared previous at hotspot-rodinia-3.1.sm_30.ptx:38 skipping new declaration
GPGPU-Sim PTX: Warning %r8 was declared previous at hotspot-rodinia-3.1.sm_30.ptx:38 skipping new declaration
GPGPU-Sim PTX: Warning %r9 was declared previous at hotspot-rodinia-3.1.sm_30.ptx:38 skipping new declaration
GPGPU-Sim PTX: Warning %r10 was declared previous at hotspot-rodinia-3.1.sm_30.ptx:38 skipping new declaration
GPGPU-Sim PTX: Warning %r11 was declared previous at hotspot-rodinia-3.1.sm_30.ptx:38 skipping new declaration
GPGPU-Sim PTX: Warning %r12 was declared previous at hotspot-rodinia-3.1.sm_30.ptx:38 skipping new declaration
GPGPU-Sim PTX: Warning %r13 was declared previous at hotspot-rodinia-3.1.sm_30.ptx:38 skipping new declaration
GPGPU-Sim PTX: Warning %r14 was declared previous at hotspot-rodinia-3.1.sm_30.ptx:38 skipping new declaration
GPGPU-Sim PTX: Warning %r15 was declared previous at hotspot-rodinia-3.1.sm_30.ptx:38 skipping new declaration
GPGPU-Sim PTX: Warning %r16 was declared previous at hotspot-rodinia-3.1.sm_30.ptx:38 skipping new declaration
GPGPU-Sim PTX: Warning %r17 was declared previous at hotspot-rodinia-3.1.sm_30.ptx:38 skipping new declaration
GPGPU-Sim PTX: Warning %r18 was declared previous at hotspot-rodinia-3.1.sm_30.ptx:38 skipping new declaration
GPGPU-Sim PTX: Warning %r19 was declared previous at hotspot-rodinia-3.1.sm_30.ptx:38 skipping new declaration
GPGPU-Sim PTX: Warning %r20 was declared previous at hotspot-rodinia-3.1.sm_30.ptx:38 skipping new declaration
GPGPU-Sim PTX: Warning %r21 was declared previous at hotspot-rodinia-3.1.sm_30.ptx:38 skipping new declaration
GPGPU-Sim PTX: Warning %r22 was declared previous at hotspot-rodinia-3.1.sm_30.ptx:38 skipping new declaration
GPGPU-Sim PTX: Warning %r23 was declared previous at hotspot-rodinia-3.1.sm_30.ptx:38 skipping new declaration
GPGPU-Sim PTX: Warning %r24 was declared previous at hotspot-rodinia-3.1.sm_30.ptx:38 skipping new declaration
GPGPU-Sim PTX: Warning %r25 was declared previous at hotspot-rodinia-3.1.sm_30.ptx:38 skipping new declaration
GPGPU-Sim PTX: Warning %r26 was declared previous at hotspot-rodinia-3.1.sm_30.ptx:38 skipping new declaration
GPGPU-Sim PTX: Warning %r27 was declared previous at hotspot-rodinia-3.1.sm_30.ptx:38 skipping new declaration
GPGPU-Sim PTX: Warning %r28 was declared previous at hotspot-rodinia-3.1.sm_30.ptx:38 skipping new declaration
GPGPU-Sim PTX: Warning %r29 was declared previous at hotspot-rodinia-3.1.sm_30.ptx:38 skipping new declaration
GPGPU-Sim PTX: Warning %r30 was declared previous at hotspot-rodinia-3.1.sm_30.ptx:38 skipping new declaration
GPGPU-Sim PTX: Warning %r31 was declared previous at hotspot-rodinia-3.1.sm_30.ptx:38 skipping new declaration
GPGPU-Sim PTX: Warning %r32 was declared previous at hotspot-rodinia-3.1.sm_30.ptx:38 skipping new declaration
GPGPU-Sim PTX: Warning %r33 was declared previous at hotspot-rodinia-3.1.sm_30.ptx:38 skipping new declaration
GPGPU-Sim PTX: Warning %r34 was declared previous at hotspot-rodinia-3.1.sm_30.ptx:38 skipping new declaration
GPGPU-Sim PTX: Warning %r35 was declared previous at hotspot-rodinia-3.1.sm_30.ptx:38 skipping new declaration
GPGPU-Sim PTX: Warning %r36 was declared previous at hotspot-rodinia-3.1.sm_30.ptx:38 skipping new declaration
GPGPU-Sim PTX: Warning %r37 was declared previous at hotspot-rodinia-3.1.sm_30.ptx:38 skipping new declaration
GPGPU-Sim PTX: Warning %r38 was declared previous at hotspot-rodinia-3.1.sm_30.ptx:38 skipping new declaration
GPGPU-Sim PTX: Warning %r39 was declared previous at hotspot-rodinia-3.1.sm_30.ptx:38 skipping new declaration
GPGPU-Sim PTX: Warning %r40 was declared previous at hotspot-rodinia-3.1.sm_30.ptx:38 skipping new declaration
GPGPU-Sim PTX: Warning %r41 was declared previous at hotspot-rodinia-3.1.sm_30.ptx:38 skipping new declaration
GPGPU-Sim PTX: Warning %r42 was declared previous at hotspot-rodinia-3.1.sm_30.ptx:38 skipping new declaration
GPGPU-Sim PTX: Warning %r43 was declared previous at hotspot-rodinia-3.1.sm_30.ptx:38 skipping new declaration
GPGPU-Sim PTX: Warning %r44 was declared previous at hotspot-rodinia-3.1.sm_30.ptx:38 skipping new declaration
GPGPU-Sim PTX: Warning %r45 was declared previous at hotspot-rodinia-3.1.sm_30.ptx:38 skipping new declaration
GPGPU-Sim PTX: Warning %r46 was declared previous at hotspot-rodinia-3.1.sm_30.ptx:38 skipping new declaration
GPGPU-Sim PTX: Warning %r47 was declared previous at hotspot-rodinia-3.1.sm_30.ptx:38 skipping new declaration
GPGPU-Sim PTX: Warning %r48 was declared previous at hotspot-rodinia-3.1.sm_30.ptx:38 skipping new declaration
GPGPU-Sim PTX: Warning %r49 was declared previous at hotspot-rodinia-3.1.sm_30.ptx:38 skipping new declaration
GPGPU-Sim PTX: Warning %r50 was declared previous at hotspot-rodinia-3.1.sm_30.ptx:38 skipping new declaration
GPGPU-Sim PTX: Warning %r51 was declared previous at hotspot-rodinia-3.1.sm_30.ptx:38 skipping new declaration
GPGPU-Sim PTX: Warning %r52 was declared previous at hotspot-rodinia-3.1.sm_30.ptx:38 skipping new declaration
GPGPU-Sim PTX: Warning %r53 was declared previous at hotspot-rodinia-3.1.sm_30.ptx:38 skipping new declaration
GPGPU-Sim PTX: Warning %r54 was declared previous at hotspot-rodinia-3.1.sm_30.ptx:38 skipping new declaration
GPGPU-Sim PTX: Warning %r55 was declared previous at hotspot-rodinia-3.1.sm_30.ptx:38 skipping new declaration
GPGPU-Sim PTX: Warning %r56 was declared previous at hotspot-rodinia-3.1.sm_30.ptx:38 skipping new declaration
GPGPU-Sim PTX: Warning %r57 was declared previous at hotspot-rodinia-3.1.sm_30.ptx:38 skipping new declaration
GPGPU-Sim PTX: Warning %r58 was declared previous at hotspot-rodinia-3.1.sm_30.ptx:38 skipping new declaration
GPGPU-Sim PTX: Warning %r59 was declared previous at hotspot-rodinia-3.1.sm_30.ptx:38 skipping new declaration
GPGPU-Sim PTX: Warning %r60 was declared previous at hotspot-rodinia-3.1.sm_30.ptx:38 skipping new declaration
GPGPU-Sim PTX: Warning %r61 was declared previous at hotspot-rodinia-3.1.sm_30.ptx:38 skipping new declaration
GPGPU-Sim PTX: Warning %r62 was declared previous at hotspot-rodinia-3.1.sm_30.ptx:38 skipping new declaration
GPGPU-Sim PTX: Warning %r63 was declared previous at hotspot-rodinia-3.1.sm_30.ptx:38 skipping new declaration
GPGPU-Sim PTX: Warning %r64 was declared previous at hotspot-rodinia-3.1.sm_30.ptx:38 skipping new declaration
GPGPU-Sim PTX: Warning %r65 was declared previous at hotspot-rodinia-3.1.sm_30.ptx:38 skipping new declaration
GPGPU-Sim PTX: Warning %r66 was declared previous at hotspot-rodinia-3.1.sm_30.ptx:38 skipping new declaration
GPGPU-Sim PTX: Warning %r67 was declared previous at hotspot-rodinia-3.1.sm_30.ptx:38 skipping new declaration
GPGPU-Sim PTX: Warning %r68 was declared previous at hotspot-rodinia-3.1.sm_30.ptx:38 skipping new declaration
GPGPU-Sim PTX: Warning %r69 was declared previous at hotspot-rodinia-3.1.sm_30.ptx:38 skipping new declaration
GPGPU-Sim PTX: Warning %r70 was declared previous at hotspot-rodinia-3.1.sm_30.ptx:38 skipping new declaration
GPGPU-Sim PTX: Warning %r71 was declared previous at hotspot-rodinia-3.1.sm_30.ptx:38 skipping new declaration
GPGPU-Sim PTX: Warning %r72 was declared previous at hotspot-rodinia-3.1.sm_30.ptx:38 skipping new declaration
GPGPU-Sim PTX: Warning %r73 was declared previous at hotspot-rodinia-3.1.sm_30.ptx:38 skipping new declaration
GPGPU-Sim PTX: Warning %r74 was declared previous at hotspot-rodinia-3.1.sm_30.ptx:38 skipping new declaration
GPGPU-Sim PTX: Warning %r75 was declared previous at hotspot-rodinia-3.1.sm_30.ptx:38 skipping new declaration
GPGPU-Sim PTX: Warning %r76 was declared previous at hotspot-rodinia-3.1.sm_30.ptx:38 skipping new declaration
GPGPU-Sim PTX: Warning %r77 was declared previous at hotspot-rodinia-3.1.sm_30.ptx:38 skipping new declaration
GPGPU-Sim PTX: Warning %r78 was declared previous at hotspot-rodinia-3.1.sm_30.ptx:38 skipping new declaration
GPGPU-Sim PTX: Warning %r79 was declared previous at hotspot-rodinia-3.1.sm_30.ptx:38 skipping new declaration
GPGPU-Sim PTX: Warning %r80 was declared previous at hotspot-rodinia-3.1.sm_30.ptx:38 skipping new declaration
GPGPU-Sim PTX: Warning %r81 was declared previous at hotspot-rodinia-3.1.sm_30.ptx:38 skipping new declaration
GPGPU-Sim PTX: Warning %r82 was declared previous at hotspot-rodinia-3.1.sm_30.ptx:38 skipping new declaration
GPGPU-Sim PTX: Warning %r83 was declared previous at hotspot-rodinia-3.1.sm_30.ptx:38 skipping new declaration
GPGPU-Sim PTX: Warning %r84 was declared previous at hotspot-rodinia-3.1.sm_30.ptx:38 skipping new declaration
GPGPU-Sim PTX: Warning %fd0 was declared previous at hotspot-rodinia-3.1.sm_30.ptx:39 skipping new declaration
GPGPU-Sim PTX: Warning %fd1 was declared previous at hotspot-rodinia-3.1.sm_30.ptx:39 skipping new declaration
GPGPU-Sim PTX: Warning %fd2 was declared previous at hotspot-rodinia-3.1.sm_30.ptx:39 skipping new declaration
GPGPU-Sim PTX: Warning %fd3 was declared previous at hotspot-rodinia-3.1.sm_30.ptx:39 skipping new declaration
GPGPU-Sim PTX: Warning %fd4 was declared previous at hotspot-rodinia-3.1.sm_30.ptx:39 skipping new declaration
GPGPU-Sim PTX: Warning %fd5 was declared previous at hotspot-rodinia-3.1.sm_30.ptx:39 skipping new declaration
GPGPU-Sim PTX: Warning %fd6 was declared previous at hotspot-rodinia-3.1.sm_30.ptx:39 skipping new declaration
GPGPU-Sim PTX: Warning %fd7 was declared previous at hotspot-rodinia-3.1.sm_30.ptx:39 skipping new declaration
GPGPU-Sim PTX: Warning %fd8 was declared previous at hotspot-rodinia-3.1.sm_30.ptx:39 skipping new declaration
GPGPU-Sim PTX: Warning %fd9 was declared previous at hotspot-rodinia-3.1.sm_30.ptx:39 skipping new declaration
GPGPU-Sim PTX: Warning %fd10 was declared previous at hotspot-rodinia-3.1.sm_30.ptx:39 skipping new declaration
GPGPU-Sim PTX: Warning %fd11 was declared previous at hotspot-rodinia-3.1.sm_30.ptx:39 skipping new declaration
GPGPU-Sim PTX: Warning %fd12 was declared previous at hotspot-rodinia-3.1.sm_30.ptx:39 skipping new declaration
GPGPU-Sim PTX: Warning %fd13 was declared previous at hotspot-rodinia-3.1.sm_30.ptx:39 skipping new declaration
GPGPU-Sim PTX: Warning %fd14 was declared previous at hotspot-rodinia-3.1.sm_30.ptx:39 skipping new declaration
GPGPU-Sim PTX: Warning %fd15 was declared previous at hotspot-rodinia-3.1.sm_30.ptx:39 skipping new declaration
GPGPU-Sim PTX: Warning %rd0 was declared previous at hotspot-rodinia-3.1.sm_30.ptx:40 skipping new declaration
GPGPU-Sim PTX: Warning %rd1 was declared previous at hotspot-rodinia-3.1.sm_30.ptx:40 skipping new declaration
GPGPU-Sim PTX: Warning %rd2 was declared previous at hotspot-rodinia-3.1.sm_30.ptx:40 skipping new declaration
GPGPU-Sim PTX: Warning %rd3 was declared previous at hotspot-rodinia-3.1.sm_30.ptx:40 skipping new declaration
GPGPU-Sim PTX: Warning %rd4 was declared previous at hotspot-rodinia-3.1.sm_30.ptx:40 skipping new declaration
GPGPU-Sim PTX: Warning %rd5 was declared previous at hotspot-rodinia-3.1.sm_30.ptx:40 skipping new declaration
GPGPU-Sim PTX: Warning %rd6 was declared previous at hotspot-rodinia-3.1.sm_30.ptx:40 skipping new declaration
GPGPU-Sim PTX: Warning %rd7 was declared previous at hotspot-rodinia-3.1.sm_30.ptx:40 skipping new declaration
GPGPU-Sim PTX: Warning %rd8 was declared previous at hotspot-rodinia-3.1.sm_30.ptx:40 skipping new declaration
GPGPU-Sim PTX: Warning %rd9 was declared previous at hotspot-rodinia-3.1.sm_30.ptx:40 skipping new declaration
GPGPU-Sim PTX: Warning %rd10 was declared previous at hotspot-rodinia-3.1.sm_30.ptx:40 skipping new declaration
GPGPU-Sim PTX: Warning %rd11 was declared previous at hotspot-rodinia-3.1.sm_30.ptx:40 skipping new declaration
GPGPU-Sim PTX: Warning _Z14calculate_tempiPfS_S_iiiiffffff$__cuda_local_var_14882_39_non_const_temp_on_cuda was declared previous at hotspot-rodinia-3.2.sm_35.ptx:42 skipping new declaration
GPGPU-Sim PTX: Warning _Z14calculate_tempiPfS_S_iiiiffffff$__cuda_local_var_14883_39_non_const_power_on_cuda was declared previous at hotspot-rodinia-3.2.sm_35.ptx:44 skipping new declaration
GPGPU-Sim PTX: Warning _Z14calculate_tempiPfS_S_iiiiffffff$__cuda_local_var_14884_39_non_const_temp_t was declared previous at hotspot-rodinia-3.2.sm_35.ptx:46 skipping new declaration
GPGPU-Sim PTX: instruction assembly for function '_Z14calculate_tempiPfS_S_iiiiffffff'...   done.
GPGPU-Sim PTX: finished parsing EMBEDDED .ptx file hotspot-rodinia-3.3.sm_50.ptx
GPGPU-Sim PTX: Parsing hotspot-rodinia-3.4.sm_60.ptx
GPGPU-Sim PTX: Warning %p0 was declared previous at hotspot-rodinia-3.1.sm_30.ptx:35 skipping new declaration
GPGPU-Sim PTX: Warning %p1 was declared previous at hotspot-rodinia-3.1.sm_30.ptx:35 skipping new declaration
GPGPU-Sim PTX: Warning %p2 was declared previous at hotspot-rodinia-3.1.sm_30.ptx:35 skipping new declaration
GPGPU-Sim PTX: Warning %p3 was declared previous at hotspot-rodinia-3.1.sm_30.ptx:35 skipping new declaration
GPGPU-Sim PTX: Warning %p4 was declared previous at hotspot-rodinia-3.1.sm_30.ptx:35 skipping new declaration
GPGPU-Sim PTX: Warning %p5 was declared previous at hotspot-rodinia-3.1.sm_30.ptx:35 skipping new declaration
GPGPU-Sim PTX: Warning %p6 was declared previous at hotspot-rodinia-3.1.sm_30.ptx:35 skipping new declaration
GPGPU-Sim PTX: Warning %p7 was declared previous at hotspot-rodinia-3.1.sm_30.ptx:35 skipping new declaration
GPGPU-Sim PTX: Warning %p8 was declared previous at hotspot-rodinia-3.1.sm_30.ptx:35 skipping new declaration
GPGPU-Sim PTX: Warning %p9 was declared previous at hotspot-rodinia-3.1.sm_30.ptx:35 skipping new declaration
GPGPU-Sim PTX: Warning %p10 was declared previous at hotspot-rodinia-3.1.sm_30.ptx:35 skipping new declaration
GPGPU-Sim PTX: Warning %p11 was declared previous at hotspot-rodinia-3.1.sm_30.ptx:35 skipping new declaration
GPGPU-Sim PTX: Warning %p12 was declared previous at hotspot-rodinia-3.1.sm_30.ptx:35 skipping new declaration
GPGPU-Sim PTX: Warning %p13 was declared previous at hotspot-rodinia-3.1.sm_30.ptx:35 skipping new declaration
GPGPU-Sim PTX: Warning %p14 was declared previous at hotspot-rodinia-3.1.sm_30.ptx:35 skipping new declaration
GPGPU-Sim PTX: Warning %p15 was declared previous at hotspot-rodinia-3.1.sm_30.ptx:35 skipping new declaration
GPGPU-Sim PTX: Warning %p16 was declared previous at hotspot-rodinia-3.1.sm_30.ptx:35 skipping new declaration
GPGPU-Sim PTX: Warning %p17 was declared previous at hotspot-rodinia-3.1.sm_30.ptx:35 skipping new declaration
GPGPU-Sim PTX: Warning %p18 was declared previous at hotspot-rodinia-3.1.sm_30.ptx:35 skipping new declaration
GPGPU-Sim PTX: Warning %p19 was declared previous at hotspot-rodinia-3.1.sm_30.ptx:35 skipping new declaration
GPGPU-Sim PTX: Warning %p20 was declared previous at hotspot-rodinia-3.1.sm_30.ptx:35 skipping new declaration
GPGPU-Sim PTX: Warning %p21 was declared previous at hotspot-rodinia-3.1.sm_30.ptx:35 skipping new declaration
GPGPU-Sim PTX: Warning %p22 was declared previous at hotspot-rodinia-3.1.sm_30.ptx:35 skipping new declaration
GPGPU-Sim PTX: Warning %p23 was declared previous at hotspot-rodinia-3.1.sm_30.ptx:35 skipping new declaration
GPGPU-Sim PTX: Warning %p24 was declared previous at hotspot-rodinia-3.1.sm_30.ptx:35 skipping new declaration
GPGPU-Sim PTX: Warning %p25 was declared previous at hotspot-rodinia-3.1.sm_30.ptx:35 skipping new declaration
GPGPU-Sim PTX: Warning %p26 was declared previous at hotspot-rodinia-3.1.sm_30.ptx:35 skipping new declaration
GPGPU-Sim PTX: Warning %p27 was declared previous at hotspot-rodinia-3.1.sm_30.ptx:35 skipping new declaration
GPGPU-Sim PTX: Warning %p28 was declared previous at hotspot-rodinia-3.1.sm_30.ptx:35 skipping new declaration
GPGPU-Sim PTX: Warning %p29 was declared previous at hotspot-rodinia-3.1.sm_30.ptx:35 skipping new declaration
GPGPU-Sim PTX: Warning %p30 was declared previous at hotspot-rodinia-3.1.sm_30.ptx:35 skipping new declaration
GPGPU-Sim PTX: Warning %rs0 was declared previous at hotspot-rodinia-3.1.sm_30.ptx:36 skipping new declaration
GPGPU-Sim PTX: Warning %rs1 was declared previous at hotspot-rodinia-3.1.sm_30.ptx:36 skipping new declaration
GPGPU-Sim PTX: Warning %rs2 was declared previous at hotspot-rodinia-3.1.sm_30.ptx:36 skipping new declaration
GPGPU-Sim PTX: Warning %rs3 was declared previous at hotspot-rodinia-3.1.sm_30.ptx:36 skipping new declaration
GPGPU-Sim PTX: Warning %rs4 was declared previous at hotspot-rodinia-3.1.sm_30.ptx:36 skipping new declaration
GPGPU-Sim PTX: Warning %rs5 was declared previous at hotspot-rodinia-3.1.sm_30.ptx:36 skipping new declaration
GPGPU-Sim PTX: Warning %rs6 was declared previous at hotspot-rodinia-3.1.sm_30.ptx:36 skipping new declaration
GPGPU-Sim PTX: Warning %rs7 was declared previous at hotspot-rodinia-3.1.sm_30.ptx:36 skipping new declaration
GPGPU-Sim PTX: Warning %rs8 was declared previous at hotspot-rodinia-3.1.sm_30.ptx:36 skipping new declaration
GPGPU-Sim PTX: Warning %rs9 was declared previous at hotspot-rodinia-3.1.sm_30.ptx:36 skipping new declaration
GPGPU-Sim PTX: Warning %f0 was declared previous at hotspot-rodinia-3.1.sm_30.ptx:37 skipping new declaration
GPGPU-Sim PTX: Warning %f1 was declared previous at hotspot-rodinia-3.1.sm_30.ptx:37 skipping new declaration
GPGPU-Sim PTX: Warning %f2 was declared previous at hotspot-rodinia-3.1.sm_30.ptx:37 skipping new declaration
GPGPU-Sim PTX: Warning %f3 was declared previous at hotspot-rodinia-3.1.sm_30.ptx:37 skipping new declaration
GPGPU-Sim PTX: Warning %f4 was declared previous at hotspot-rodinia-3.1.sm_30.ptx:37 skipping new declaration
GPGPU-Sim PTX: Warning %f5 was declared previous at hotspot-rodinia-3.1.sm_30.ptx:37 skipping new declaration
GPGPU-Sim PTX: Warning %f6 was declared previous at hotspot-rodinia-3.1.sm_30.ptx:37 skipping new declaration
GPGPU-Sim PTX: Warning %f7 was declared previous at hotspot-rodinia-3.1.sm_30.ptx:37 skipping new declaration
GPGPU-Sim PTX: Warning %f8 was declared previous at hotspot-rodinia-3.1.sm_30.ptx:37 skipping new declaration
GPGPU-Sim PTX: Warning %f9 was declared previous at hotspot-rodinia-3.1.sm_30.ptx:37 skipping new declaration
GPGPU-Sim PTX: Warning %f10 was declared previous at hotspot-rodinia-3.1.sm_30.ptx:37 skipping new declaration
GPGPU-Sim PTX: Warning %f11 was declared previous at hotspot-rodinia-3.1.sm_30.ptx:37 skipping new declaration
GPGPU-Sim PTX: Warning %f12 was declared previous at hotspot-rodinia-3.1.sm_30.ptx:37 skipping new declaration
GPGPU-Sim PTX: Warning %f13 was declared previous at hotspot-rodinia-3.1.sm_30.ptx:37 skipping new declaration
GPGPU-Sim PTX: Warning %f14 was declared previous at hotspot-rodinia-3.1.sm_30.ptx:37 skipping new declaration
GPGPU-Sim PTX: Warning %f15 was declared previous at hotspot-rodinia-3.1.sm_30.ptx:37 skipping new declaration
GPGPU-Sim PTX: Warning %f16 was declared previous at hotspot-rodinia-3.1.sm_30.ptx:37 skipping new declaration
GPGPU-Sim PTX: Warning %f17 was declared previous at hotspot-rodinia-3.1.sm_30.ptx:37 skipping new declaration
GPGPU-Sim PTX: Warning %f18 was declared previous at hotspot-rodinia-3.1.sm_30.ptx:37 skipping new declaration
GPGPU-Sim PTX: Warning %f19 was declared previous at hotspot-rodinia-3.1.sm_30.ptx:37 skipping new declaration
GPGPU-Sim PTX: Warning %f20 was declared previous at hotspot-rodinia-3.1.sm_30.ptx:37 skipping new declaration
GPGPU-Sim PTX: Warning %f21 was declared previous at hotspot-rodinia-3.1.sm_30.ptx:37 skipping new declaration
GPGPU-Sim PTX: Warning %f22 was declared previous at hotspot-rodinia-3.1.sm_30.ptx:37 skipping new declaration
GPGPU-Sim PTX: Warning %f23 was declared previous at hotspot-rodinia-3.1.sm_30.ptx:37 skipping new declaration
GPGPU-Sim PTX: Warning %f24 was declared previous at hotspot-rodinia-3.1.sm_30.ptx:37 skipping new declaration
GPGPU-Sim PTX: Warning %f25 was declared previous at hotspot-rodinia-3.1.sm_30.ptx:37 skipping new declaration
GPGPU-Sim PTX: Warning %r0 was declared previous at hotspot-rodinia-3.1.sm_30.ptx:38 skipping new declaration
GPGPU-Sim PTX: Warning %r1 was declared previous at hotspot-rodinia-3.1.sm_30.ptx:38 skipping new declaration
GPGPU-Sim PTX: Warning %r2 was declared previous at hotspot-rodinia-3.1.sm_30.ptx:38 skipping new declaration
GPGPU-Sim PTX: Warning %r3 was declared previous at hotspot-rodinia-3.1.sm_30.ptx:38 skipping new declaration
GPGPU-Sim PTX: Warning %r4 was declared previous at hotspot-rodinia-3.1.sm_30.ptx:38 skipping new declaration
GPGPU-Sim PTX: Warning %r5 was declared previous at hotspot-rodinia-3.1.sm_30.ptx:38 skipping new declaration
GPGPU-Sim PTX: Warning %r6 was declared previous at hotspot-rodinia-3.1.sm_30.ptx:38 skipping new declaration
GPGPU-Sim PTX: Warning %r7 was declared previous at hotspot-rodinia-3.1.sm_30.ptx:38 skipping new declaration
GPGPU-Sim PTX: Warning %r8 was declared previous at hotspot-rodinia-3.1.sm_30.ptx:38 skipping new declaration
GPGPU-Sim PTX: Warning %r9 was declared previous at hotspot-rodinia-3.1.sm_30.ptx:38 skipping new declaration
GPGPU-Sim PTX: Warning %r10 was declared previous at hotspot-rodinia-3.1.sm_30.ptx:38 skipping new declaration
GPGPU-Sim PTX: Warning %r11 was declared previous at hotspot-rodinia-3.1.sm_30.ptx:38 skipping new declaration
GPGPU-Sim PTX: Warning %r12 was declared previous at hotspot-rodinia-3.1.sm_30.ptx:38 skipping new declaration
GPGPU-Sim PTX: Warning %r13 was declared previous at hotspot-rodinia-3.1.sm_30.ptx:38 skipping new declaration
GPGPU-Sim PTX: Warning %r14 was declared previous at hotspot-rodinia-3.1.sm_30.ptx:38 skipping new declaration
GPGPU-Sim PTX: Warning %r15 was declared previous at hotspot-rodinia-3.1.sm_30.ptx:38 skipping new declaration
GPGPU-Sim PTX: Warning %r16 was declared previous at hotspot-rodinia-3.1.sm_30.ptx:38 skipping new declaration
GPGPU-Sim PTX: Warning %r17 was declared previous at hotspot-rodinia-3.1.sm_30.ptx:38 skipping new declaration
GPGPU-Sim PTX: Warning %r18 was declared previous at hotspot-rodinia-3.1.sm_30.ptx:38 skipping new declaration
GPGPU-Sim PTX: Warning %r19 was declared previous at hotspot-rodinia-3.1.sm_30.ptx:38 skipping new declaration
GPGPU-Sim PTX: Warning %r20 was declared previous at hotspot-rodinia-3.1.sm_30.ptx:38 skipping new declaration
GPGPU-Sim PTX: Warning %r21 was declared previous at hotspot-rodinia-3.1.sm_30.ptx:38 skipping new declaration
GPGPU-Sim PTX: Warning %r22 was declared previous at hotspot-rodinia-3.1.sm_30.ptx:38 skipping new declaration
GPGPU-Sim PTX: Warning %r23 was declared previous at hotspot-rodinia-3.1.sm_30.ptx:38 skipping new declaration
GPGPU-Sim PTX: Warning %r24 was declared previous at hotspot-rodinia-3.1.sm_30.ptx:38 skipping new declaration
GPGPU-Sim PTX: Warning %r25 was declared previous at hotspot-rodinia-3.1.sm_30.ptx:38 skipping new declaration
GPGPU-Sim PTX: Warning %r26 was declared previous at hotspot-rodinia-3.1.sm_30.ptx:38 skipping new declaration
[...]
MSHR contents

Cache L2_bank_057:
MSHR contents

In Dram Latency Queue (total = 0): 
DRAM[28]: 16 bks, busW=16 BL=2 CL=12, tRRD=3 tCCD=1, tRCD=12 tRAS=28 tRP=12 tRC=40
n_cmd=19946 n_nop=11842 n_act=635 n_pre=619 n_ref_event=0 n_req=6806 n_rd=6588 n_rd_L2_A=0 n_write=0 n_wr_bk=872 bw_util=0.374
n_activity=14229 dram_eff=0.5243
bk0: 388a 17727i bk1: 376a 18080i bk2: 384a 18334i bk3: 384a 18359i bk4: 416a 17866i bk5: 408a 17578i bk6: 392a 18478i bk7: 384a 18088i bk8: 408a 18666i bk9: 424a 18904i bk10: 404a 18555i bk11: 404a 18399i bk12: 448a 17128i bk13: 448a 17149i bk14: 456a 16692i bk15: 464a 16996i 

------------------------------------------------------------------------

Row_Buffer_Locality = 0.906700
Row_Buffer_Locality_read = 0.909988
Row_Buffer_Locality_write = 0.807339
Bank_Level_Parallism = 3.155835
Bank_Level_Parallism_Col = 2.455736
Bank_Level_Parallism_Ready = 1.531904
write_to_read_ratio_blp_rw_average = 0.162070
GrpLevelPara = 1.904878 

BW Util details:
bwutil = 0.374010 
total_CMD = 19946 
util_bw = 7460 
Wasted_Col = 3719 
Wasted_Row = 1161 
Idle = 7606 

BW Util Bottlenecks: 
RCDc_limit = 3510 
RCDWRc_limit = 180 
WTRc_limit = 374 
RTWc_limit = 2496 
CCDLc_limit = 1702 
rwq = 0 
CCDLc_limit_alone = 1455 
WTRc_limit_alone = 335 
RTWc_limit_alone = 2288 

Commands details: 
total_CMD = 19946 
n_nop = 11842 
Read = 6588 
Write = 0 
L2_Alloc = 0 
L2_WB = 872 
n_act = 635 
n_pre = 619 
n_ref = 0 
n_req = 6806 
total_req = 7460 

Dual Bus Interface Util: 
issued_total_row = 1254 
issued_total_col = 7460 
Row_Bus_Util =  0.062870 
CoL_Bus_Util = 0.374010 
Either_Row_CoL_Bus_Util = 0.406297 
Issued_on_Two_Bus_Simul_Util = 0.030583 
issued_two_Eff = 0.075271 
queue_avg = 3.327635 


dram_util_bins: 0 0 0 0 0 0 0 0 0 0
dram_eff_bins: 0 0 0 0 0 0 0 0 0 0
mrqq: max=64 avg=3.32763
Memory Partition 29: 
Cache L2_bank_058:
MSHR contents

Cache L2_bank_059:
MSHR contents

In Dram Latency Queue (total = 0): 
DRAM[29]: 16 bks, busW=16 BL=2 CL=12, tRRD=3 tCCD=1, tRCD=12 tRAS=28 tRP=12 tRC=40
n_cmd=19946 n_nop=11839 n_act=628 n_pre=612 n_ref_event=0 n_req=6827 n_rd=6616 n_rd_L2_A=0 n_write=0 n_wr_bk=844 bw_util=0.374
n_activity=14231 dram_eff=0.5242
bk0: 408a 17351i bk1: 388a 17763i bk2: 388a 18350i bk3: 388a 18641i bk4: 412a 17885i bk5: 408a 18071i bk6: 396a 17764i bk7: 392a 18179i bk8: 424a 18575i bk9: 416a 18804i bk10: 392a 18300i bk11: 400a 18944i bk12: 448a 17141i bk13: 448a 17017i bk14: 460a 16692i bk15: 448a 17388i 

------------------------------------------------------------------------

Row_Buffer_Locality = 0.908012
Row_Buffer_Locality_read = 0.910520
Row_Buffer_Locality_write = 0.829384
Bank_Level_Parallism = 3.164549
Bank_Level_Parallism_Col = 2.465745
Bank_Level_Parallism_Ready = 1.517292
write_to_read_ratio_blp_rw_average = 0.147506
GrpLevelPara = 1.843135 

BW Util details:
bwutil = 0.374010 
total_CMD = 19946 
util_bw = 7460 
Wasted_Col = 3786 
Wasted_Row = 1109 
Idle = 7591 

BW Util Bottlenecks: 
RCDc_limit = 3517 
RCDWRc_limit = 140 
WTRc_limit = 554 
RTWc_limit = 2124 
CCDLc_limit = 1829 
rwq = 0 
CCDLc_limit_alone = 1586 
WTRc_limit_alone = 480 
RTWc_limit_alone = 1955 

Commands details: 
total_CMD = 19946 
n_nop = 11839 
Read = 6616 
Write = 0 
L2_Alloc = 0 
L2_WB = 844 
n_act = 628 
n_pre = 612 
n_ref = 0 
n_req = 6827 
total_req = 7460 

Dual Bus Interface Util: 
issued_total_row = 1240 
issued_total_col = 7460 
Row_Bus_Util =  0.062168 
CoL_Bus_Util = 0.374010 
Either_Row_CoL_Bus_Util = 0.406447 
Issued_on_Two_Bus_Simul_Util = 0.029730 
issued_two_Eff = 0.073147 
queue_avg = 3.049283 


dram_util_bins: 0 0 0 0 0 0 0 0 0 0
dram_eff_bins: 0 0 0 0 0 0 0 0 0 0
mrqq: max=64 avg=3.04928
Memory Partition 30: 
Cache L2_bank_060:
MSHR contents

Cache L2_bank_061:
MSHR contents

In Dram Latency Queue (total = 0): 
DRAM[30]: 16 bks, busW=16 BL=2 CL=12, tRRD=3 tCCD=1, tRCD=12 tRAS=28 tRP=12 tRC=40
n_cmd=19946 n_nop=11836 n_act=612 n_pre=596 n_ref_event=0 n_req=6782 n_rd=6564 n_rd_L2_A=0 n_write=0 n_wr_bk=872 bw_util=0.3728
n_activity=14217 dram_eff=0.523
bk0: 376a 17779i bk1: 388a 17139i bk2: 384a 18392i bk3: 384a 18684i bk4: 400a 17966i bk5: 404a 18326i bk6: 388a 18423i bk7: 396a 18487i bk8: 420a 18674i bk9: 428a 18335i bk10: 396a 18532i bk11: 416a 18157i bk12: 448a 17272i bk13: 448a 17239i bk14: 436a 17331i bk15: 452a 16698i 

------------------------------------------------------------------------

Row_Buffer_Locality = 0.909761
Row_Buffer_Locality_read = 0.913620
Row_Buffer_Locality_write = 0.793578
Bank_Level_Parallism = 3.148748
Bank_Level_Parallism_Col = 2.515185
Bank_Level_Parallism_Ready = 1.614174
write_to_read_ratio_blp_rw_average = 0.162096
GrpLevelPara = 1.915792 

BW Util details:
bwutil = 0.372807 
total_CMD = 19946 
util_bw = 7436 
Wasted_Col = 3543 
Wasted_Row = 1243 
Idle = 7724 

BW Util Bottlenecks: 
RCDc_limit = 3364 
RCDWRc_limit = 191 
WTRc_limit = 372 
RTWc_limit = 2290 
CCDLc_limit = 1707 
rwq = 0 
CCDLc_limit_alone = 1514 
WTRc_limit_alone = 316 
RTWc_limit_alone = 2153 

Commands details: 
total_CMD = 19946 
n_nop = 11836 
Read = 6564 
Write = 0 
L2_Alloc = 0 
L2_WB = 872 
n_act = 612 
n_pre = 596 
n_ref = 0 
n_req = 6782 
total_req = 7436 

Dual Bus Interface Util: 
issued_total_row = 1208 
issued_total_col = 7436 
Row_Bus_Util =  0.060564 
CoL_Bus_Util = 0.372807 
Either_Row_CoL_Bus_Util = 0.406598 
Issued_on_Two_Bus_Simul_Util = 0.026772 
issued_two_Eff = 0.065845 
queue_avg = 2.942294 


dram_util_bins: 0 0 0 0 0 0 0 0 0 0
dram_eff_bins: 0 0 0 0 0 0 0 0 0 0
mrqq: max=64 avg=2.94229
Memory Partition 31: 
Cache L2_bank_062:
MSHR contents

Cache L2_bank_063:
MSHR contents

In Dram Latency Queue (total = 0): 
DRAM[31]: 16 bks, busW=16 BL=2 CL=12, tRRD=3 tCCD=1, tRCD=12 tRAS=28 tRP=12 tRC=40
n_cmd=19946 n_nop=11826 n_act=636 n_pre=620 n_ref_event=0 n_req=6784 n_rd=6572 n_rd_L2_A=0 n_write=0 n_wr_bk=848 bw_util=0.372
n_activity=14225 dram_eff=0.5216
bk0: 384a 17228i bk1: 392a 17270i bk2: 384a 18937i bk3: 384a 19047i bk4: 404a 18084i bk5: 396a 18416i bk6: 388a 18536i bk7: 392a 18609i bk8: 420a 18761i bk9: 428a 18938i bk10: 400a 18533i bk11: 392a 18868i bk12: 444a 16881i bk13: 448a 17223i bk14: 456a 16937i bk15: 460a 16472i 

------------------------------------------------------------------------

Row_Buffer_Locality = 0.906250
Row_Buffer_Locality_read = 0.909160
Row_Buffer_Locality_write = 0.816038
Bank_Level_Parallism = 3.012722
Bank_Level_Parallism_Col = 2.304090
Bank_Level_Parallism_Ready = 1.452426
write_to_read_ratio_blp_rw_average = 0.143790
GrpLevelPara = 1.846771 

BW Util details:
bwutil = 0.372004 
total_CMD = 19946 
util_bw = 7420 
Wasted_Col = 3681 
Wasted_Row = 1240 
Idle = 7605 

BW Util Bottlenecks: 
RCDc_limit = 3623 
RCDWRc_limit = 182 
WTRc_limit = 442 
RTWc_limit = 1642 
CCDLc_limit = 1669 
rwq = 0 
CCDLc_limit_alone = 1502 
WTRc_limit_alone = 384 
RTWc_limit_alone = 1533 

Commands details: 
total_CMD = 19946 
n_nop = 11826 
Read = 6572 
Write = 0 
L2_Alloc = 0 
L2_WB = 848 
n_act = 636 
n_pre = 620 
n_ref = 0 
n_req = 6784 
total_req = 7420 

Dual Bus Interface Util: 
issued_total_row = 1256 
issued_total_col = 7420 
Row_Bus_Util =  0.062970 
CoL_Bus_Util = 0.372004 
Either_Row_CoL_Bus_Util = 0.407099 
Issued_on_Two_Bus_Simul_Util = 0.027875 
issued_two_Eff = 0.068473 
queue_avg = 2.380929 


dram_util_bins: 0 0 0 0 0 0 0 0 0 0
dram_eff_bins: 0 0 0 0 0 0 0 0 0 0
mrqq: max=57 avg=2.38093

========= L2 cache stats =========
L2_cache_bank[0]: Access = 13538, Miss = 6004, Miss_rate = 0.443, Pending_hits = 948, Reservation_fails = 0
L2_cache_bank[1]: Access = 13669, Miss = 5980, Miss_rate = 0.437, Pending_hits = 993, Reservation_fails = 0
L2_cache_bank[2]: Access = 13541, Miss = 6012, Miss_rate = 0.444, Pending_hits = 963, Reservation_fails = 0
L2_cache_bank[3]: Access = 13672, Miss = 5988, Miss_rate = 0.438, Pending_hits = 986, Reservation_fails = 0
L2_cache_bank[4]: Access = 13543, Miss = 6004, Miss_rate = 0.443, Pending_hits = 983, Reservation_fails = 0
L2_cache_bank[5]: Access = 13669, Miss = 5996, Miss_rate = 0.439, Pending_hits = 922, Reservation_fails = 0
L2_cache_bank[6]: Access = 13540, Miss = 5960, Miss_rate = 0.440, Pending_hits = 929, Reservation_fails = 0
L2_cache_bank[7]: Access = 13669, Miss = 5980, Miss_rate = 0.437, Pending_hits = 936, Reservation_fails = 0
L2_cache_bank[8]: Access = 13538, Miss = 6024, Miss_rate = 0.445, Pending_hits = 970, Reservation_fails = 0
L2_cache_bank[9]: Access = 13669, Miss = 6040, Miss_rate = 0.442, Pending_hits = 988, Reservation_fails = 0
L2_cache_bank[10]: Access = 13541, Miss = 6000, Miss_rate = 0.443, Pending_hits = 925, Reservation_fails = 0
L2_cache_bank[11]: Access = 13672, Miss = 6064, Miss_rate = 0.444, Pending_hits = 958, Reservation_fails = 0
L2_cache_bank[12]: Access = 13543, Miss = 6012, Miss_rate = 0.444, Pending_hits = 981, Reservation_fails = 0
L2_cache_bank[13]: Access = 13669, Miss = 6028, Miss_rate = 0.441, Pending_hits = 979, Reservation_fails = 0
L2_cache_bank[14]: Access = 13540, Miss = 6004, Miss_rate = 0.443, Pending_hits = 965, Reservation_fails = 0
L2_cache_bank[15]: Access = 13669, Miss = 6052, Miss_rate = 0.443, Pending_hits = 951, Reservation_fails = 0
L2_cache_bank[16]: Access = 13547, Miss = 5992, Miss_rate = 0.442, Pending_hits = 940, Reservation_fails = 0
L2_cache_bank[17]: Access = 13670, Miss = 6024, Miss_rate = 0.441, Pending_hits = 969, Reservation_fails = 0
L2_cache_bank[18]: Access = 13541, Miss = 6036, Miss_rate = 0.446, Pending_hits = 946, Reservation_fails = 0
L2_cache_bank[19]: Access = 13664, Miss = 6028, Miss_rate = 0.441, Pending_hits = 940, Reservation_fails = 0
L2_cache_bank[20]: Access = 13537, Miss = 6024, Miss_rate = 0.445, Pending_hits = 879, Reservation_fails = 0
L2_cache_bank[21]: Access = 13670, Miss = 6036, Miss_rate = 0.442, Pending_hits = 987, Reservation_fails = 0
L2_cache_bank[22]: Access = 13542, Miss = 6020, Miss_rate = 0.445, Pending_hits = 944, Reservation_fails = 0
L2_cache_bank[23]: Access = 13670, Miss = 6036, Miss_rate = 0.442, Pending_hits = 980, Reservation_fails = 0
L2_cache_bank[24]: Access = 13547, Miss = 6000, Miss_rate = 0.443, Pending_hits = 924, Reservation_fails = 0
L2_cache_bank[25]: Access = 13670, Miss = 6048, Miss_rate = 0.442, Pending_hits = 968, Reservation_fails = 0
L2_cache_bank[26]: Access = 13541, Miss = 6016, Miss_rate = 0.444, Pending_hits = 951, Reservation_fails = 0
L2_cache_bank[27]: Access = 13664, Miss = 6072, Miss_rate = 0.444, Pending_hits = 999, Reservation_fails = 0
L2_cache_bank[28]: Access = 13537, Miss = 5996, Miss_rate = 0.443, Pending_hits = 1000, Reservation_fails = 0
L2_cache_bank[29]: Access = 13670, Miss = 6028, Miss_rate = 0.441, Pending_hits = 984, Reservation_fails = 0
L2_cache_bank[30]: Access = 13542, Miss = 6008, Miss_rate = 0.444, Pending_hits = 953, Reservation_fails = 0
L2_cache_bank[31]: Access = 13670, Miss = 6028, Miss_rate = 0.441, Pending_hits = 1003, Reservation_fails = 0
L2_cache_bank[32]: Access = 13538, Miss = 6004, Miss_rate = 0.443, Pending_hits = 943, Reservation_fails = 0
L2_cache_bank[33]: Access = 13669, Miss = 5984, Miss_rate = 0.438, Pending_hits = 1005, Reservation_fails = 0
L2_cache_bank[34]: Access = 13541, Miss = 6008, Miss_rate = 0.444, Pending_hits = 984, Reservation_fails = 0
L2_cache_bank[35]: Access = 13672, Miss = 5980, Miss_rate = 0.437, Pending_hits = 1021, Reservation_fails = 0
L2_cache_bank[36]: Access = 13543, Miss = 6000, Miss_rate = 0.443, Pending_hits = 985, Reservation_fails = 0
L2_cache_bank[37]: Access = 13669, Miss = 6016, Miss_rate = 0.440, Pending_hits = 911, Reservation_fails = 0
L2_cache_bank[38]: Access = 13540, Miss = 5964, Miss_rate = 0.440, Pending_hits = 942, Reservation_fails = 0
L2_cache_bank[39]: Access = 13669, Miss = 5988, Miss_rate = 0.438, Pending_hits = 955, Reservation_fails = 0
L2_cache_bank[40]: Access = 13538, Miss = 6024, Miss_rate = 0.445, Pending_hits = 921, Reservation_fails = 0
L2_cache_bank[41]: Access = 13669, Miss = 6052, Miss_rate = 0.443, Pending_hits = 980, Reservation_fails = 0
L2_cache_bank[42]: Access = 13541, Miss = 6012, Miss_rate = 0.444, Pending_hits = 932, Reservation_fails = 0
L2_cache_bank[43]: Access = 13672, Miss = 6080, Miss_rate = 0.445, Pending_hits = 993, Reservation_fails = 0
L2_cache_bank[44]: Access = 13543, Miss = 6012, Miss_rate = 0.444, Pending_hits = 972, Reservation_fails = 0
L2_cache_bank[45]: Access = 13669, Miss = 6032, Miss_rate = 0.441, Pending_hits = 992, Reservation_fails = 0
L2_cache_bank[46]: Access = 13540, Miss = 6016, Miss_rate = 0.444, Pending_hits = 982, Reservation_fails = 0
L2_cache_bank[47]: Access = 13669, Miss = 6040, Miss_rate = 0.442, Pending_hits = 946, Reservation_fails = 0
L2_cache_bank[48]: Access = 13547, Miss = 5996, Miss_rate = 0.443, Pending_hits = 930, Reservation_fails = 0
L2_cache_bank[49]: Access = 13670, Miss = 6028, Miss_rate = 0.441, Pending_hits = 960, Reservation_fails = 0
L2_cache_bank[50]: Access = 13541, Miss = 6044, Miss_rate = 0.446, Pending_hits = 946, Reservation_fails = 0
L2_cache_bank[51]: Access = 13664, Miss = 6028, Miss_rate = 0.441, Pending_hits = 940, Reservation_fails = 0
L2_cache_bank[52]: Access = 13537, Miss = 6048, Miss_rate = 0.447, Pending_hits = 900, Reservation_fails = 0
L2_cache_bank[53]: Access = 13670, Miss = 6052, Miss_rate = 0.443, Pending_hits = 991, Reservation_fails = 0
L2_cache_bank[54]: Access = 13542, Miss = 6016, Miss_rate = 0.444, Pending_hits = 961, Reservation_fails = 0
L2_cache_bank[55]: Access = 13670, Miss = 6044, Miss_rate = 0.442, Pending_hits = 994, Reservation_fails = 0
L2_cache_bank[56]: Access = 13547, Miss = 6000, Miss_rate = 0.443, Pending_hits = 953, Reservation_fails = 0
L2_cache_bank[57]: Access = 13670, Miss = 6060, Miss_rate = 0.443, Pending_hits = 972, Reservation_fails = 0
L2_cache_bank[58]: Access = 13541, Miss = 6012, Miss_rate = 0.444, Pending_hits = 958, Reservation_fails = 0
L2_cache_bank[59]: Access = 13664, Miss = 6076, Miss_rate = 0.445, Pending_hits = 1012, Reservation_fails = 0
L2_cache_bank[60]: Access = 13537, Miss = 5992, Miss_rate = 0.443, Pending_hits = 982, Reservation_fails = 0
L2_cache_bank[61]: Access = 13670, Miss = 6044, Miss_rate = 0.442, Pending_hits = 974, Reservation_fails = 0
L2_cache_bank[62]: Access = 13542, Miss = 6008, Miss_rate = 0.444, Pending_hits = 981, Reservation_fails = 0
L2_cache_bank[63]: Access = 13670, Miss = 6036, Miss_rate = 0.442, Pending_hits = 1021, Reservation_fails = 0
L2_total_cache_accesses = 870728
L2_total_cache_misses = 385236
L2_total_cache_miss_rate = 0.4424
L2_total_cache_pending_hits = 61683
L2_total_cache_reservation_fails = 0
L2_total_cache_breakdown:
	L2_cache_stats_breakdown[GLOBAL_ACC_R][HIT] = 423809
	L2_cache_stats_breakdown[GLOBAL_ACC_R][HIT_RESERVED] = 61683
	L2_cache_stats_breakdown[GLOBAL_ACC_R][MISS] = 52533
	L2_cache_stats_breakdown[GLOBAL_ACC_R][RESERVATION_FAIL] = 0
	L2_cache_stats_breakdown[GLOBAL_ACC_R][SECTOR_MISS] = 157599
	L2_cache_stats_breakdown[GLOBAL_ACC_R][MSHR_HIT] = 61683
	L2_cache_stats_breakdown[LOCAL_ACC_R][HIT] = 0
	L2_cache_stats_breakdown[LOCAL_ACC_R][HIT_RESERVED] = 0
	L2_cache_stats_breakdown[LOCAL_ACC_R][MISS] = 0
	L2_cache_stats_breakdown[LOCAL_ACC_R][RESERVATION_FAIL] = 0
	L2_cache_stats_breakdown[LOCAL_ACC_R][SECTOR_MISS] = 0
	L2_cache_stats_breakdown[LOCAL_ACC_R][MSHR_HIT] = 0
	L2_cache_stats_breakdown[CONST_ACC_R][HIT] = 0
	L2_cache_stats_breakdown[CONST_ACC_R][HIT_RESERVED] = 0
	L2_cache_stats_breakdown[CONST_ACC_R][MISS] = 0
	L2_cache_stats_breakdown[CONST_ACC_R][RESERVATION_FAIL] = 0
	L2_cache_stats_breakdown[CONST_ACC_R][SECTOR_MISS] = 0
	L2_cache_stats_breakdown[CONST_ACC_R][MSHR_HIT] = 0
	L2_cache_stats_breakdown[TEXTURE_ACC_R][HIT] = 0
	L2_cache_stats_breakdown[TEXTURE_ACC_R][HIT_RESERVED] = 0
	L2_cache_stats_breakdown[TEXTURE_ACC_R][MISS] = 0
	L2_cache_stats_breakdown[TEXTURE_ACC_R][RESERVATION_FAIL] = 0
	L2_cache_stats_breakdown[TEXTURE_ACC_R][SECTOR_MISS] = 0
	L2_cache_stats_breakdown[TEXTURE_ACC_R][MSHR_HIT] = 0
	L2_cache_stats_breakdown[GLOBAL_ACC_W][HIT] = 0
	L2_cache_stats_breakdown[GLOBAL_ACC_W][HIT_RESERVED] = 0
	L2_cache_stats_breakdown[GLOBAL_ACC_W][MISS] = 32768
	L2_cache_stats_breakdown[GLOBAL_ACC_W][RESERVATION_FAIL] = 0
	L2_cache_stats_breakdown[GLOBAL_ACC_W][SECTOR_MISS] = 142336
	L2_cache_stats_breakdown[GLOBAL_ACC_W][MSHR_HIT] = 0
	L2_cache_stats_breakdown[LOCAL_ACC_W][HIT] = 0
	L2_cache_stats_breakdown[LOCAL_ACC_W][HIT_RESERVED] = 0
	L2_cache_stats_breakdown[LOCAL_ACC_W][MISS] = 0
	L2_cache_stats_breakdown[LOCAL_ACC_W][RESERVATION_FAIL] = 0
	L2_cache_stats_breakdown[LOCAL_ACC_W][SECTOR_MISS] = 0
	L2_cache_stats_breakdown[LOCAL_ACC_W][MSHR_HIT] = 0
	L2_cache_stats_breakdown[L1_WRBK_ACC][HIT] = 0
	L2_cache_stats_breakdown[L1_WRBK_ACC][HIT_RESERVED] = 0
	L2_cache_stats_breakdown[L1_WRBK_ACC][MISS] = 0
	L2_cache_stats_breakdown[L1_WRBK_ACC][RESERVATION_FAIL] = 0
	L2_cache_stats_breakdown[L1_WRBK_ACC][SECTOR_MISS] = 0
	L2_cache_stats_breakdown[L1_WRBK_ACC][MSHR_HIT] = 0
	L2_cache_stats_breakdown[L2_WRBK_ACC][HIT] = 0
	L2_cache_stats_breakdown[L2_WRBK_ACC][HIT_RESERVED] = 0
	L2_cache_stats_breakdown[L2_WRBK_ACC][MISS] = 0
	L2_cache_stats_breakdown[L2_WRBK_ACC][RESERVATION_FAIL] = 0
	L2_cache_stats_breakdown[L2_WRBK_ACC][SECTOR_MISS] = 0
	L2_cache_stats_breakdown[L2_WRBK_ACC][MSHR_HIT] = 0
	L2_cache_stats_breakdown[INST_ACC_R][HIT] = 0
	L2_cache_stats_breakdown[INST_ACC_R][HIT_RESERVED] = 0
	L2_cache_stats_breakdown[INST_ACC_R][MISS] = 0
	L2_cache_stats_breakdown[INST_ACC_R][RESERVATION_FAIL] = 0
	L2_cache_stats_breakdown[INST_ACC_R][SECTOR_MISS] = 0
	L2_cache_stats_breakdown[INST_ACC_R][MSHR_HIT] = 0
	L2_cache_stats_breakdown[L1_WR_ALLOC_R][HIT] = 0
	L2_cache_stats_breakdown[L1_WR_ALLOC_R][HIT_RESERVED] = 0
	L2_cache_stats_breakdown[L1_WR_ALLOC_R][MISS] = 0
	L2_cache_stats_breakdown[L1_WR_ALLOC_R][RESERVATION_FAIL] = 0
	L2_cache_stats_breakdown[L1_WR_ALLOC_R][SECTOR_MISS] = 0
	L2_cache_stats_breakdown[L1_WR_ALLOC_R][MSHR_HIT] = 0
	L2_cache_stats_breakdown[L2_WR_ALLOC_R][HIT] = 0
	L2_cache_stats_breakdown[L2_WR_ALLOC_R][HIT_RESERVED] = 0
	L2_cache_stats_breakdown[L2_WR_ALLOC_R][MISS] = 0
	L2_cache_stats_breakdown[L2_WR_ALLOC_R][RESERVATION_FAIL] = 0
	L2_cache_stats_breakdown[L2_WR_ALLOC_R][SECTOR_MISS] = 0
	L2_cache_stats_breakdown[L2_WR_ALLOC_R][MSHR_HIT] = 0
	L2_cache_stats_breakdown[GLOBAL_ACC_R][TOTAL_ACCESS] = 757307
	L2_cache_stats_breakdown[GLOBAL_ACC_W][TOTAL_ACCESS] = 175104
L2_total_cache_reservation_fail_breakdown:
L2_cache_data_port_util = 0.264
L2_cache_fill_port_util = 0.124

icnt_total_pkts_mem_to_simt=870728
icnt_total_pkts_simt_to_mem=870728
LD_mem_lat_dist  0 0 0 0 0 0 0 0 0 0 0 0 0 0 0 0 0 0 0 0 0 0 0 0 0 0 0
ST_mem_lat_dist  0 0 0 0 0 0 0 0 0 0 0 0 0 0 0 0 0 0 0 0 0 0 0 0 0 0 0
----------------------------Interconnect-DETAILS--------------------------------
Req_Network_injected_packets_num = 870728
Req_Network_cycles = 26564
Req_Network_injected_packets_per_cycle =      32.7785 
Req_Network_conflicts_per_cycle =      29.5157
Req_Network_conflicts_per_cycle_util =      38.7207
Req_Bank_Level_Parallism =      43.0010
Req_Network_in_buffer_full_per_cycle =     364.9130
Req_Network_in_buffer_avg_util =     336.3617
Req_Network_out_buffer_full_per_cycle =       0.0000
Req_Network_out_buffer_avg_util =       0.5122

Reply_Network_injected_packets_num = 870728
Reply_Network_cycles = 26564
Reply_Network_injected_packets_per_cycle =       32.7785
Reply_Network_conflicts_per_cycle =       18.0062
Reply_Network_conflicts_per_cycle_util =      23.7803
Reply_Bank_Level_Parallism =      43.2896
Reply_Network_in_buffer_full_per_cycle =       0.0000
Reply_Network_in_buffer_avg_util =       5.3996
Reply_Network_out_buffer_full_per_cycle =       0.0000
Reply_Network_out_buffer_avg_util =       0.4097
----------------------------END-of-Interconnect-DETAILS-------------------------


gpgpu_simulation_time = 0 days, 0 hrs, 46 min, 13 sec (2773 sec)
gpgpu_simulation_rate = 129887 (inst/sec)
gpgpu_simulation_rate = 9 (cycle/sec)
gpgpu_silicon_slowdown = 125777777x
GPGPU-Sim: *** exit detected ***
