Skipping setup_environment - already set
doing: export -n PTX_SIM_USE_PTX_FILE
doing: export LD_LIBRARY_PATH=/home/min/a/devlinc/Documents/ECE60827/hardware-sim-assgn-2/hardware-simulation-assignment-2-texashodlr/util/job_launching/../../sim_run_9.1/gpgpu-sim-builds/gpgpu-sim_git-commit-a5339f56558d282e0ff48181156f07c28d32c1b6_modified_0.0:/home/min/a/devlinc/Documents/ECE60827/hardware-sim-assgn-2/hardware-simulation-assignment-2-texashodlr/gpu-simulator/gpgpu-sim/lib/gcc-8.3.0/cuda-9010/release:/home/min/a/devlinc/Documents/ECE60827/hardware-sim-assgn-2/hardware-simulation-assignment-2-texashodlr/gpu-simulator/gpgpu-sim/lib/gcc-8.3.0/cuda-9010/release:/package/gcc/8.3.0/lib64:
doing: cd /home/min/a/devlinc/Documents/ECE60827/hardware-sim-assgn-2/hardware-simulation-assignment-2-texashodlr/util/job_launching/../../sim_run_9.1/b+tree-rodinia-3.1/file___data_mil_txt_command___data_command_txt/QV100-PTX-1B_INSN
doing: export OPENCL_CURRENT_TEST_PATH=/home/min/a/devlinc/Documents/ECE60827/hardware-sim-assgn-2/hardware-simulation-assignment-2-texashodlr/util/job_launching/../../sim_run_9.1/b+tree-rodinia-3.1/file___data_mil_txt_command___data_command_txt/QV100-PTX-1B_INSN
doing: export OPENCL_REMOTE_GPU_HOST=REPLACE_REMOTE_HOST
doing 
doing: export PATH=/home/min/a/devlinc/Documents/ECE60827/hardware-sim-assgn-2/hardware-simulation-assignment-2-texashodlr/gpu-simulator/gpgpu-sim/bin:/home/min/a/ee695paa/cuda/bin:/home/min/a/ee695paa/cuda/bin:/home/min/a/ee695paa/cuda/bin:/package/gcc/8.3.0/bin:/usr/lib64/qt-3.3/bin:/usr/lib64/ccache:/usr/local/bin:/usr/bin:/usr/local/sbin:/usr/sbin:.
doing export CUDA_LAUNCH_BLOCKING=1
doing:  /home/min/a/ee695paa/github/gpu-app-collection/src/..//bin/9.1/release/b+tree-rodinia-3.1 file ./data/mil.txt command ./data/command.txt


        *** GPGPU-Sim Simulator Version 4.0.0  [build gpgpu-sim_git-commit-a5339f56558d282e0ff48181156f07c28d32c1b6_modified_0.0] ***


GPGPU-Sim PTX: simulation mode 0 (can change with PTX_SIM_MODE_FUNC environment variable:
               1=functional simulation only, 0=detailed performance simulator)
GPGPU-Sim: Configuration options:

-save_embedded_ptx                      0 # saves ptx files embedded in binary as <n>.ptx
-keep                                   0 # keep intermediate files created by GPGPU-Sim when interfacing with external programs
-gpgpu_ptx_save_converted_ptxplus                    0 # Saved converted ptxplus to a file
-gpgpu_occupancy_sm_number                   70 # The SM number to pass to ptxas when getting register usage for computing GPU occupancy. This parameter is required in the config.
-ptx_opcode_latency_int      4,13,4,5,145,21 # Opcode latencies for integers <ADD,MAX,MUL,MAD,DIV,SHFL>Default 1,1,19,25,145,32
-ptx_opcode_latency_fp          4,13,4,5,39 # Opcode latencies for single precision floating points <ADD,MAX,MUL,MAD,DIV>Default 1,1,1,1,30
-ptx_opcode_latency_dp         8,19,8,8,330 # Opcode latencies for double precision floating points <ADD,MAX,MUL,MAD,DIV>Default 8,8,8,8,335
-ptx_opcode_latency_sfu                  100 # Opcode latencies for SFU instructionsDefault 8
-ptx_opcode_latency_tesnor                   64 # Opcode latencies for Tensor instructionsDefault 64
-ptx_opcode_initiation_int          2,2,2,2,8,4 # Opcode initiation intervals for integers <ADD,MAX,MUL,MAD,DIV,SHFL>Default 1,1,4,4,32,4
-ptx_opcode_initiation_fp            2,2,2,2,4 # Opcode initiation intervals for single precision floating points <ADD,MAX,MUL,MAD,DIV>Default 1,1,1,1,5
-ptx_opcode_initiation_dp          4,4,4,4,130 # Opcode initiation intervals for double precision floating points <ADD,MAX,MUL,MAD,DIV>Default 8,8,8,8,130
-ptx_opcode_initiation_sfu                    8 # Opcode initiation intervals for sfu instructionsDefault 8
-ptx_opcode_initiation_tensor                   64 # Opcode initiation intervals for tensor instructionsDefault 64
-cdp_latency         7200,8000,100,12000,1600 # CDP API latency <cudaStreamCreateWithFlags, cudaGetParameterBufferV2_init_perWarp, cudaGetParameterBufferV2_perKernel, cudaLaunchDeviceV2_init_perWarp, cudaLaunchDevicV2_perKernel>Default 7200,8000,100,12000,1600
-network_mode                           2 # Interconnection network mode
-inter_config_file                   mesh # Interconnection network config file
-icnt_in_buffer_limit                  512 # in_buffer_limit
-icnt_out_buffer_limit                  512 # out_buffer_limit
-icnt_subnets                           2 # subnets
-icnt_arbiter_algo                      1 # arbiter_algo
-icnt_verbose                           0 # inct_verbose
-icnt_grant_cycles                      1 # grant_cycles
-gpgpu_ptx_use_cuobjdump                    1 # Use cuobjdump to extract ptx and sass from binaries
-gpgpu_experimental_lib_support                    0 # Try to extract code from cuda libraries [Broken because of unknown cudaGetExportTable]
-checkpoint_option                      0 #  checkpointing flag (0 = no checkpoint)
-checkpoint_kernel                      1 #  checkpointing during execution of which kernel (1- 1st kernel)
-checkpoint_CTA                         0 #  checkpointing after # of CTA (< less than total CTA)
-resume_option                          0 #  resume flag (0 = no resume)
-resume_kernel                          0 #  Resume from which kernel (1= 1st kernel)
-resume_CTA                             0 #  resume from which CTA 
-checkpoint_CTA_t                       0 #  resume from which CTA 
-checkpoint_insn_Y                      0 #  resume from which CTA 
-gpgpu_ptx_convert_to_ptxplus                    0 # Convert SASS (native ISA) to ptxplus and run ptxplus
-gpgpu_ptx_force_max_capability                   70 # Force maximum compute capability
-gpgpu_ptx_inst_debug_to_file                    0 # Dump executed instructions' debug information to file
-gpgpu_ptx_inst_debug_file       inst_debug.txt # Executed instructions' debug output file
-gpgpu_ptx_inst_debug_thread_uid                    1 # Thread UID for executed instructions' debug output
-gpgpu_simd_model                       1 # 1 = post-dominator
-gpgpu_shader_core_pipeline              2048:32 # shader core pipeline config, i.e., {<nthread>:<warpsize>}
-gpgpu_tex_cache:l1  N:4:128:256,L:R:m:N:L,T:512:8,128:2 # per-shader L1 texture cache  (READ-ONLY) config  {<nsets>:<bsize>:<assoc>,<rep>:<wr>:<alloc>:<wr_alloc>,<mshr>:<N>:<merge>,<mq>:<rf>}
-gpgpu_const_cache:l1 N:128:64:8,L:R:f:N:L,S:2:64,4 # per-shader L1 constant memory cache  (READ-ONLY) config  {<nsets>:<bsize>:<assoc>,<rep>:<wr>:<alloc>:<wr_alloc>,<mshr>:<N>:<merge>,<mq>} 
-gpgpu_cache:il1     N:64:128:16,L:R:f:N:L,S:2:48,4 # shader L1 instruction cache config  {<nsets>:<bsize>:<assoc>,<rep>:<wr>:<alloc>:<wr_alloc>,<mshr>:<N>:<merge>,<mq>} 
-gpgpu_cache:dl1     S:1:128:256,L:L:m:N:L,A:512:8,16:0,32 # per-shader L1 data cache config  {<nsets>:<bsize>:<assoc>,<rep>:<wr>:<alloc>:<wr_alloc>,<mshr>:<N>:<merge>,<mq> | none}
-gpgpu_l1_banks                         4 # The number of L1 cache banks
-gpgpu_l1_banks_byte_interleaving                   32 # l1 banks byte interleaving granularity
-gpgpu_l1_banks_hashing_function                    0 # l1 banks hashing function
-gpgpu_l1_latency                      20 # L1 Hit Latency
-gpgpu_smem_latency                    20 # smem Latency
-gpgpu_cache:dl1PrefL1                 none # per-shader L1 data cache config  {<nsets>:<bsize>:<assoc>,<rep>:<wr>:<alloc>:<wr_alloc>,<mshr>:<N>:<merge>,<mq> | none}
-gpgpu_cache:dl1PrefShared                 none # per-shader L1 data cache config  {<nsets>:<bsize>:<assoc>,<rep>:<wr>:<alloc>:<wr_alloc>,<mshr>:<N>:<merge>,<mq> | none}
-gpgpu_gmem_skip_L1D                    0 # global memory access skip L1D cache (implements -Xptxas -dlcm=cg, default=no skip)
-gpgpu_perfect_mem                      0 # enable perfect memory mode (no cache miss)
-n_regfile_gating_group                    4 # group of lanes that should be read/written together)
-gpgpu_clock_gated_reg_file                    0 # enable clock gated reg file for power calculations
-gpgpu_clock_gated_lanes                    0 # enable clock gated lanes for power calculations
-gpgpu_shader_registers                65536 # Number of registers per shader core. Limits number of concurrent CTAs. (default 8192)
-gpgpu_registers_per_block                65536 # Maximum number of registers per CTA. (default 8192)
-gpgpu_ignore_resources_limitation                    0 # gpgpu_ignore_resources_limitation (default 0)
-gpgpu_shader_cta                      32 # Maximum number of concurrent CTAs in shader (default 8)
-gpgpu_num_cta_barriers                   16 # Maximum number of named barriers per CTA (default 16)
-gpgpu_n_clusters                      80 # number of processing clusters
-gpgpu_n_cores_per_cluster                    1 # number of simd cores per cluster
-gpgpu_n_cluster_ejection_buffer_size                   32 # number of packets in ejection buffer
-gpgpu_n_ldst_response_buffer_size                    2 # number of response packets in ld/st unit ejection buffer
-gpgpu_shmem_per_block                65536 # Size of shared memory per thread block or CTA (default 48kB)
-gpgpu_shmem_size                   98304 # Size of shared memory per shader core (default 16kB)
-gpgpu_adaptive_cache_config                    1 # adaptive_cache_config
-gpgpu_shmem_sizeDefault                98304 # Size of shared memory per shader core (default 16kB)
-gpgpu_shmem_size_PrefL1                16384 # Size of shared memory per shader core (default 16kB)
-gpgpu_shmem_size_PrefShared                16384 # Size of shared memory per shader core (default 16kB)
-gpgpu_shmem_num_banks                   32 # Number of banks in the shared memory in each shader core (default 16)
-gpgpu_shmem_limited_broadcast                    0 # Limit shared memory to do one broadcast per cycle (default on)
-gpgpu_shmem_warp_parts                    1 # Number of portions a warp is divided into for shared memory bank conflict check 
-gpgpu_mem_unit_ports                    1 # The number of memory transactions allowed per core cycle
-gpgpu_shmem_warp_parts                    1 # Number of portions a warp is divided into for shared memory bank conflict check 
-gpgpu_warpdistro_shader                   -1 # Specify which shader core to collect the warp size distribution from
-gpgpu_warp_issue_shader                    0 # Specify which shader core to collect the warp issue distribution from
-gpgpu_local_mem_map                    1 # Mapping from local memory space address to simulated GPU physical address space (default = enabled)
-gpgpu_num_reg_banks                   16 # Number of register banks (default = 8)
-gpgpu_reg_bank_use_warp_id                    0 # Use warp ID in mapping registers to banks (default = off)
-gpgpu_sub_core_model                    1 # Sub Core Volta/Pascal model (default = off)
-gpgpu_enable_specialized_operand_collector                    0 # enable_specialized_operand_collector
-gpgpu_operand_collector_num_units_sp                    4 # number of collector units (default = 4)
-gpgpu_operand_collector_num_units_dp                    0 # number of collector units (default = 0)
-gpgpu_operand_collector_num_units_sfu                    4 # number of collector units (default = 4)
-gpgpu_operand_collector_num_units_int                    0 # number of collector units (default = 0)
-gpgpu_operand_collector_num_units_tensor_core                    4 # number of collector units (default = 4)
-gpgpu_operand_collector_num_units_mem                    2 # number of collector units (default = 2)
-gpgpu_operand_collector_num_units_gen                    8 # number of collector units (default = 0)
-gpgpu_operand_collector_num_in_ports_sp                    1 # number of collector unit in ports (default = 1)
-gpgpu_operand_collector_num_in_ports_dp                    0 # number of collector unit in ports (default = 0)
-gpgpu_operand_collector_num_in_ports_sfu                    1 # number of collector unit in ports (default = 1)
-gpgpu_operand_collector_num_in_ports_int                    0 # number of collector unit in ports (default = 0)
-gpgpu_operand_collector_num_in_ports_tensor_core                    1 # number of collector unit in ports (default = 1)
-gpgpu_operand_collector_num_in_ports_mem                    1 # number of collector unit in ports (default = 1)
-gpgpu_operand_collector_num_in_ports_gen                    8 # number of collector unit in ports (default = 0)
-gpgpu_operand_collector_num_out_ports_sp                    1 # number of collector unit in ports (default = 1)
-gpgpu_operand_collector_num_out_ports_dp                    0 # number of collector unit in ports (default = 0)
-gpgpu_operand_collector_num_out_ports_sfu                    1 # number of collector unit in ports (default = 1)
-gpgpu_operand_collector_num_out_ports_int                    0 # number of collector unit in ports (default = 0)
-gpgpu_operand_collector_num_out_ports_tensor_core                    1 # number of collector unit in ports (default = 1)
-gpgpu_operand_collector_num_out_ports_mem                    1 # number of collector unit in ports (default = 1)
-gpgpu_operand_collector_num_out_ports_gen                    8 # number of collector unit in ports (default = 0)
-gpgpu_coalesce_arch                   60 # Coalescing arch (GT200 = 13, Fermi = 20)
-gpgpu_num_sched_per_core                    4 # Number of warp schedulers per core
-gpgpu_max_insn_issue_per_warp                    1 # Max number of instructions that can be issued per warp in one cycle by scheduler (either 1 or 2)
-gpgpu_dual_issue_diff_exec_units                    1 # should dual issue use two different execution unit resources (Default = 1)
-gpgpu_simt_core_sim_order                    1 # Select the simulation order of cores in a cluster (0=Fix, 1=Round-Robin)
-gpgpu_pipeline_widths 4,4,4,4,4,4,4,4,4,4,8,4,4 # Pipeline widths ID_OC_SP,ID_OC_DP,ID_OC_INT,ID_OC_SFU,ID_OC_MEM,OC_EX_SP,OC_EX_DP,OC_EX_INT,OC_EX_SFU,OC_EX_MEM,EX_WB,ID_OC_TENSOR_CORE,OC_EX_TENSOR_CORE
-gpgpu_tensor_core_avail                    1 # Tensor Core Available (default=0)
-gpgpu_num_sp_units                     4 # Number of SP units (default=1)
-gpgpu_num_dp_units                     4 # Number of DP units (default=0)
-gpgpu_num_int_units                    4 # Number of INT units (default=0)
-gpgpu_num_sfu_units                    4 # Number of SF units (default=1)
-gpgpu_num_tensor_core_units                    4 # Number of tensor_core units (default=1)
-gpgpu_num_mem_units                    1 # Number if ldst units (default=1) WARNING: not hooked up to anything
-gpgpu_scheduler                      gto # Scheduler configuration: < lrr | gto | two_level_active > If two_level_active:<num_active_warps>:<inner_prioritization>:<outer_prioritization>For complete list of prioritization values see shader.h enum scheduler_prioritization_typeDefault: gto
-gpgpu_concurrent_kernel_sm                    0 # Support concurrent kernels on a SM (default = disabled)
-gpgpu_perfect_inst_const_cache                    1 # perfect inst and const cache mode, so all inst and const hits in the cache(default = disabled)
-gpgpu_inst_fetch_throughput                    4 # the number of fetched intruction per warp each cycle
-gpgpu_reg_file_port_throughput                    2 # the number ports of the register file
-specialized_unit_1         0,4,4,4,4,BRA # specialized unit config {<enabled>,<num_units>:<latency>:<initiation>,<ID_OC_SPEC>:<OC_EX_SPEC>,<NAME>}
-specialized_unit_2         0,4,4,4,4,BRA # specialized unit config {<enabled>,<num_units>:<latency>:<initiation>,<ID_OC_SPEC>:<OC_EX_SPEC>,<NAME>}
-specialized_unit_3         0,4,4,4,4,BRA # specialized unit config {<enabled>,<num_units>:<latency>:<initiation>,<ID_OC_SPEC>:<OC_EX_SPEC>,<NAME>}
-specialized_unit_4         0,4,4,4,4,BRA # specialized unit config {<enabled>,<num_units>:<latency>:<initiation>,<ID_OC_SPEC>:<OC_EX_SPEC>,<NAME>}
-specialized_unit_5         0,4,4,4,4,BRA # specialized unit config {<enabled>,<num_units>:<latency>:<initiation>,<ID_OC_SPEC>:<OC_EX_SPEC>,<NAME>}
-specialized_unit_6         0,4,4,4,4,BRA # specialized unit config {<enabled>,<num_units>:<latency>:<initiation>,<ID_OC_SPEC>:<OC_EX_SPEC>,<NAME>}
-specialized_unit_7         0,4,4,4,4,BRA # specialized unit config {<enabled>,<num_units>:<latency>:<initiation>,<ID_OC_SPEC>:<OC_EX_SPEC>,<NAME>}
-specialized_unit_8         0,4,4,4,4,BRA # specialized unit config {<enabled>,<num_units>:<latency>:<initiation>,<ID_OC_SPEC>:<OC_EX_SPEC>,<NAME>}
-gpgpu_perf_sim_memcpy                    1 # Fill the L2 cache on memcpy
-gpgpu_simple_dram_model                    0 # simple_dram_model with fixed latency and BW
-gpgpu_dram_scheduler                    1 # 0 = fifo, 1 = FR-FCFS (defaul)
-gpgpu_dram_partition_queues          64:64:64:64 # i2$:$2d:d2$:$2i
-l2_ideal                               0 # Use a ideal L2 cache that always hit
-gpgpu_cache:dl2     S:32:128:24,L:B:m:L:P,A:192:4,32:0,32 # unified banked L2 data cache config  {<nsets>:<bsize>:<assoc>,<rep>:<wr>:<alloc>:<wr_alloc>,<mshr>:<N>:<merge>,<mq>}
-gpgpu_cache:dl2_texture_only                    0 # L2 cache used for texture only
-gpgpu_n_mem                           32 # number of memory modules (e.g. memory controllers) in gpu
-gpgpu_n_sub_partition_per_mchannel                    2 # number of memory subpartition in each memory module
-gpgpu_n_mem_per_ctrlr                    1 # number of memory chips per memory controller
-gpgpu_memlatency_stat                   14 # track and display latency statistics 0x2 enables MC, 0x4 enables queue logs
-gpgpu_frfcfs_dram_sched_queue_size                   64 # 0 = unlimited (default); # entries per chip
-gpgpu_dram_return_queue_size                  192 # 0 = unlimited (default); # entries per chip
-gpgpu_dram_buswidth                   16 # default = 4 bytes (8 bytes per cycle at DDR)
-gpgpu_dram_burst_length                    2 # Burst length of each DRAM request (default = 4 data bus cycle)
-dram_data_command_freq_ratio                    2 # Fre46229150c06b5b73e7fab25ae479301  /home/min/a/ee695paa/github/gpu-app-collection/bin/9.1/release/b+tree-rodinia-3.1
Extracting PTX file and ptxas options    1: b+tree-rodinia-3.1.sm_30.ptx -arch=sm_30
Extracting PTX file and ptxas options    2: b+tree-rodinia-3.2.sm_35.ptx -arch=sm_35
Extracting PTX file and ptxas options    3: b+tree-rodinia-3.3.sm_50.ptx -arch=sm_50
Extracting PTX file and ptxas options    4: b+tree-rodinia-3.4.sm_60.ptx -arch=sm_60
Extracting PTX file and ptxas options    5: b+tree-rodinia-3.5.sm_62.ptx -arch=sm_62
equency ratio between DRAM data bus and command bus (default = 2 times, i.e. DDR)
-gpgpu_dram_timing_opt nbk=16:CCD=1:RRD=3:RCD=12:RAS=28:RP=12:RC=40: CL=12:WL=2:CDLR=3:WR=10:nbkgrp=4:CCDL=2:RTPL=3 # DRAM timing parameters = {nbk:tCCD:tRRD:tRCD:tRAS:tRP:tRC:CL:WL:tCDLR:tWR:nbkgrp:tCCDL:tRTPL}
-gpgpu_l2_rop_latency                  160 # ROP queue latency (default 85)
-dram_latency                         100 # DRAM latency (default 30)
-dram_dual_bus_interface                    1 # dual_bus_interface (default = 0) 
-dram_bnk_indexing_policy                    0 # dram_bnk_indexing_policy (0 = normal indexing, 1 = Xoring with the higher bits) (Default = 0)
-dram_bnkgrp_indexing_policy                    1 # dram_bnkgrp_indexing_policy (0 = take higher bits, 1 = take lower bits) (Default = 0)
-dram_seperate_write_queue_enable                    0 # Seperate_Write_Queue_Enable
-dram_write_queue_size             32:28:16 # Write_Queue_Size
-dram_elimnate_rw_turnaround                    0 # elimnate_rw_turnaround i.e set tWTR and tRTW = 0
-icnt_flit_size                        40 # icnt_flit_size
-gpgpu_mem_addr_mapping dramid@8;00000000.00000000.00000000.00000000.0000RRRR.RRRRRRRR.RBBBCCCB.CCCSSSSS # mapping memory address to dram model {dramid@<start bit>;<memory address map>}
-gpgpu_mem_addr_test                    0 # run sweep test to check address mapping for aliased address
-gpgpu_mem_address_mask                    1 # 0 = old addressing mask, 1 = new addressing mask, 2 = new add. mask + flipped bank sel and chip sel bits
-gpgpu_memory_partition_indexing                    2 # 0 = no indexing, 1 = bitwise xoring, 2 = IPoly, 3 = custom indexing
-gpuwattch_xml_file         gpuwattch.xml # GPUWattch XML file
-power_simulation_enabled                    0 # Turn on power simulator (1=On, 0=Off)
-power_per_cycle_dump                    0 # Dump detailed power output each cycle
-power_trace_enabled                    0 # produce a file for the power trace (1=On, 0=Off)
-power_trace_zlevel                     6 # Compression level of the power trace output log (0=no comp, 9=highest)
-steady_power_levels_enabled                    0 # produce a file for the steady power levels (1=On, 0=Off)
-steady_state_definition                  8:4 # allowed deviation:number of samples
-gpgpu_max_cycle                        0 # terminates gpu simulation early (0 = no limit)
-gpgpu_max_insn                1000000000 # terminates gpu simulation early (0 = no limit)
-gpgpu_max_cta                          0 # terminates gpu simulation early (0 = no limit)
-gpgpu_max_completed_cta                    0 # terminates gpu simulation early (0 = no limit)
-gpgpu_runtime_stat                   500 # display runtime statistics such as dram utilization {<freq>:<flag>}
-liveness_message_freq                    1 # Minimum number of seconds between simulation liveness messages (0 = always print)
-gpgpu_compute_capability_major                    7 # Major compute capability version number
-gpgpu_compute_capability_minor                    0 # Minor compute capability version number
-gpgpu_flush_l1_cache                    1 # Flush L1 cache at the end of each kernel call
-gpgpu_flush_l2_cache                    0 # Flush L2 cache at the end of each kernel call
-gpgpu_deadlock_detect                    1 # Stop the simulation at deadlock (1=on (default), 0=off)
-gpgpu_ptx_instruction_classification                    0 # if enabled will classify ptx instruction types per kernel (Max 255 kernels now)
-gpgpu_ptx_sim_mode                     0 # Select between Performance (default) or Functional simulation (1)
-gpgpu_clock_domains 1132.0:1132.0:1132.0:850.0 # Clock Domain Frequencies in MhZ {<Core Clock>:<ICNT Clock>:<L2 Clock>:<DRAM Clock>}
-gpgpu_max_concurrent_kernel                    8 # maximum kernels that can run concurrently on GPU
-gpgpu_cflog_interval                    0 # Interval between each snapshot in control flow logger
-visualizer_enabled                     0 # Turn on visualizer output (1=On, 0=Off)
-visualizer_outputfile                 NULL # Specifies the output log file for visualizer
-visualizer_zlevel                      6 # Compression level of the visualizer output log (0=no comp, 9=highest)
-gpgpu_stack_size_limit                 1024 # GPU thread stack size
-gpgpu_heap_size_limit              8388608 # GPU malloc heap size 
-gpgpu_runtime_sync_depth_limit                    2 # GPU device runtime synchronize depth
-gpgpu_runtime_pending_launch_count_limit                 2048 # GPU device runtime pending launch count
-trace_enabled                          0 # Turn on traces
-trace_components                    none # comma seperated list of traces to enable. Complete list found in trace_streams.tup. Default none
-trace_sampling_core                    0 # The core which is printed using CORE_DPRINTF. Default 0
-trace_sampling_memory_partition                   -1 # The memory partition which is printed using MEMPART_DPRINTF. Default -1 (i.e. all)
-enable_ptx_file_line_stats                    1 # Turn on PTX source line statistic profiling. (1 = On)
-ptx_line_stats_filename gpgpu_inst_stats.txt # Output file for PTX source line statistics.
-gpgpu_kernel_launch_latency                 5000 # Kernel launch latency in cycles. Default: 0
-gpgpu_cdp_enabled                      0 # Turn on CDP
-gpgpu_TB_launch_latency                    0 # thread block launch latency in cycles. Default: 0
DRAM Timing Options:
nbk                                    16 # number of banks
CCD                                     1 # column to column delay
RRD                                     3 # minimal delay between activation of rows in different banks
RCD                                    12 # row to column delay
RAS                                    28 # time needed to activate row
RP                                     12 # time needed to precharge (deactivate) row
RC                                     40 # row cycle time
CDLR                                    3 # switching from write to read (changes tWTR)
WR                                     10 # last data-in to row precharge
CL                                     12 # CAS latency
WL                                      2 # Write latency
nbkgrp                                  4 # number of bank groups
CCDL                                    2 # column to column delay between accesses to different bank groups
RTPL                                    3 # read to precharge delay between accesses to different bank groups
Total number of memory sub partition = 64
addr_dec_mask[CHIP]  = 0000000000001f00 	high:13 low:8
addr_dec_mask[BK]    = 00000000000e2000 	high:20 low:13
addr_dec_mask[ROW]   = 00000001fff00000 	high:33 low:20
addr_dec_mask[COL]   = 000000000001c0ff 	high:17 low:0
addr_dec_mask[BURST] = 000000000000001f 	high:5 low:0
sub_partition_id_mask = 0000000000002000
GPGPU-Sim uArch: clock freqs: 1132000000.000000:1132000000.000000:1132000000.000000:850000000.000000
GPGPU-Sim uArch: clock periods: 0.00000000088339222615:0.00000000088339222615:0.00000000088339222615:0.00000000117647058824
*** Initializing Memory Statistics ***
GPGPU-Sim uArch: performance model initialization complete.
self exe links to: /home/min/a/ee695paa/github/gpu-app-collection/bin/9.1/release/b+tree-rodinia-3.1
self exe links to: /home/min/a/ee695paa/github/gpu-app-collection/bin/9.1/release/b+tree-rodinia-3.1
9.1
GPGPU-Sim PTX: __cudaRegisterFatBinary, fat_cubin_handle = 1, filename=default
self exe links to: /home/min/a/ee695paa/github/gpu-app-collection/bin/9.1/release/b+tree-rodinia-3.1
Running md5sum using "md5sum /home/min/a/ee695paa/github/gpu-app-collection/bin/9.1/release/b+tree-rodinia-3.1 "
self exe links to: /home/min/a/ee695paa/github/gpu-app-collection/bin/9.1/release/b+tree-rodinia-3.1
Extracting specific PTX file named b+tree-rodinia-3.1.sm_30.ptx 
Extracting specific PTX file named b+tree-rodinia-3.2.sm_35.ptx 
Extracting specific PTX file named b+tree-rodinia-3.3.sm_50.ptx 
Extracting specific PTX file named b+tree-rodinia-3.4.sm_60.ptx 
Extracting specific PTX file named b+tree-rodinia-3.5.sm_62.ptx 
ExtExtracting PTX file and ptxas options    6: b+tree-rodinia-3.6.sm_70.ptx -arch=sm_70
Extracting PTX file and ptxas options    7: b+tree-rodinia-3.7.sm_30.ptx -arch=sm_30
Extracting PTX file and ptxas options    8: b+tree-rodinia-3.8.sm_35.ptx -arch=sm_35
Extracting PTX file and ptxas options    9: b+tree-rodinia-3.9.sm_50.ptx -arch=sm_50
Extracting PTX file and ptxas options   10: b+tree-rodinia-3.10.sm_60.ptx -arch=sm_60
Extracting PTX file and ptxas options   11: b+tree-rodinia-3.11.sm_62.ptx -arch=sm_62
Extracting PTX file and ptxas options   12: b+tree-rodinia-3.12.sm_70.ptx -arch=sm_70
Extracting PTX file and ptxas options   13: b+tree-rodinia-3.13.sm_30.ptx -arch=sm_30
Extracting PTX file and ptxas options   14: b+tree-rodinia-3.14.sm_35.ptx -arch=sm_35
Extracting PTX file and ptxas options   15: b+tree-rodinia-3.15.sm_50.ptx -arch=sm_50
Extracting PTX file and ptxas options   16: b+tree-rodinia-3.16.sm_60.ptx -arch=sm_60
Extracting PTX file and ptxas options   17: b+tree-rodinia-3.17.sm_62.ptx -arch=sm_62
Extracting PTX file and ptxas options   18: b+tree-rodinia-3.18.sm_70.ptx -arch=sm_70
racting specific PTX file named b+tree-rodinia-3.6.sm_70.ptx 
Extracting specific PTX file named b+tree-rodinia-3.7.sm_30.ptx 
Extracting specific PTX file named b+tree-rodinia-3.8.sm_35.ptx 
Extracting specific PTX file named b+tree-rodinia-3.9.sm_50.ptx 
Extracting specific PTX file named b+tree-rodinia-3.10.sm_60.ptx 
Extracting specific PTX file named b+tree-rodinia-3.11.sm_62.ptx 
Extracting specific PTX file named b+tree-rodinia-3.12.sm_70.ptx 
Extracting specific PTX file named b+tree-rodinia-3.13.sm_30.ptx 
Extracting specific PTX file named b+tree-rodinia-3.14.sm_35.ptx 
Extracting specific PTX file named b+tree-rodinia-3.15.sm_50.ptx 
Extracting specific PTX file named b+tree-rodinia-3.16.sm_60.ptx 
Extracting specific PTX file named b+tree-rodinia-3.17.sm_62.ptx 
Extracting specific PTX file named b+tree-rodinia-3.18.sm_70.ptx 
GPGPU-Sim PTX: __cudaRegisterFunction findK : hostFun 0x0x405b40, fat_cubin_handle = 1
GPGPU-Sim PTX: Parsing b+tree-rodinia-3.1.sm_30.ptx
GPGPU-Sim PTX: instruction assembly for function 'findK'...   done.
GPGPU-Sim PTX: finished parsing EMBEDDED .ptx file b+tree-rodinia-3.1.sm_30.ptx
GPGPU-Sim PTX: Parsing b+tree-rodinia-3.13.sm_30.ptx
GPGPU-Sim PTX: finished parsing EMBEDDED .ptx file b+tree-rodinia-3.13.sm_30.ptx
GPGPU-Sim PTX: Parsing b+tree-rodinia-3.7.sm_30.ptx
GPGPU-Sim PTX: instruction assembly for function 'findRangeK'...   done.
GPGPU-Sim PTX: finished parsing EMBEDDED .ptx file b+tree-rodinia-3.7.sm_30.ptx
GPGPU-Sim PTX: Parsing b+tree-rodinia-3.14.sm_35.ptx
GPGPU-Sim PTX: finished parsing EMBEDDED .ptx file b+tree-rodinia-3.14.sm_35.ptx
GPGPU-Sim PTX: Parsing b+tree-rodinia-3.2.sm_35.ptx
GPGPU-Sim PTX: Warning %p0 was declared previous at b+tree-rodinia-3.1.sm_30.ptx:26 skipping new declaration
GPGPU-Sim PTX: Warning %p1 was declared previous at b+tree-rodinia-3.1.sm_30.ptx:26 skipping new declaration
GPGPU-Sim PTX: Warning %p2 was declared previous at b+tree-rodinia-3.1.sm_30.ptx:26 skipping new declaration
GPGPU-Sim PTX: Warning %p3 was declared previous at b+tree-rodinia-3.1.sm_30.ptx:26 skipping new declaration
GPGPU-Sim PTX: Warning %p4 was declared previous at b+tree-rodinia-3.1.sm_30.ptx:26 skipping new declaration
GPGPU-Sim PTX: Warning %p5 was declared previous at b+tree-rodinia-3.1.sm_30.ptx:26 skipping new declaration
GPGPU-Sim PTX: Warning %p6 was declared previous at b+tree-rodinia-3.1.sm_30.ptx:26 skipping new declaration
GPGPU-Sim PTX: Warning %p7 was declared previous at b+tree-rodinia-3.1.sm_30.ptx:26 skipping new declaration
GPGPU-Sim PTX: Warning %p8 was declared previous at b+tree-rodinia-3.1.sm_30.ptx:26 skipping new declaration
GPGPU-Sim PTX: Warning %p9 was declared previous at b+tree-rodinia-3.1.sm_30.ptx:26 skipping new declaration
GPGPU-Sim PTX: Warning %p10 was declared previous at b+tree-rodinia-3.1.sm_30.ptx:26 skipping new declaration
GPGPU-Sim PTX: Warning %p11 was declared previous at b+tree-rodinia-3.1.sm_30.ptx:26 skipping new declaration
GPGPU-Sim PTX: Warning %p12 was declared previous at b+tree-rodinia-3.1.sm_30.ptx:26 skipping new declaration
GPGPU-Sim PTX: Warning %p13 was declared previous at b+tree-rodinia-3.1.sm_30.ptx:26 skipping new declaration
GPGPU-Sim PTX: Warning %p14 was declared previous at b+tree-rodinia-3.1.sm_30.ptx:26 skipping new declaration
GPGPU-Sim PTX: Warning %p15 was declared previous at b+tree-rodinia-3.1.sm_30.ptx:26 skipping new declaration
GPGPU-Sim PTX: Warning %p16 was declared previous at b+tree-rodinia-3.1.sm_30.ptx:26 skipping new declaration
GPGPU-Sim PTX: Warning %p17 was declared previous at b+tree-rodinia-3.1.sm_30.ptx:26 skipping new declaration
GPGPU-Sim PTX: Warning %p18 was declared previous at b+tree-rodinia-3.1.sm_30.ptx:26 skipping new declaration
GPGPU-Sim PTX: Warning %p19 was declared previous at b+tree-rodinia-3.1.sm_30.ptx:26 skipping new declaration
GPGPU-Sim PTX: Warning %p20 was declared previous at b+tree-rodinia-3.1.sm_30.ptx:26 skipping new declaration
GPGPU-Sim PTX: Warning %p21 was declared previous at b+tree-rodinia-3.1.sm_30.ptx:26 skipping new declaration
GPGPU-Sim PTX: Warning %p22 was declared previous at b+tree-rodinia-3.1.sm_30.ptx:26 skipping new declaration
GPGPU-Sim PTX: Warning %p23 was declared previous at b+tree-rodinia-3.1.sm_30.ptx:26 skipping new declaration
GPGPU-Sim PTX: Warning %p24 was declared previous at b+tree-rodinia-3.1.sm_30.ptx:26 skipping new declaration
GPGPU-Sim PTX: Warning %p25 was declared previous at b+tree-rodinia-3.1.sm_30.ptx:26 skipping new declaration
GPGPU-Sim PTX: Warning %p26 was declared previous at b+tree-rodinia-3.1.sm_30.ptx:26 skipping new declaration
GPGPU-Sim PTX: Warning %p27 was declared previous at b+tree-rodinia-3.1.sm_30.ptx:26 skipping new declaration
GPGPU-Sim PTX: Warning %p28 was declared previous at b+tree-rodinia-3.1.sm_30.ptx:26 skipping new declaration
GPGPU-Sim PTX: Warning %p29 was declared previous at b+tree-rodinia-3.1.sm_30.ptx:26 skipping new declaration
GPGPU-Sim PTX: Warning %p30 was declared previous at b+tree-rodinia-3.1.sm_30.ptx:26 skipping new declaration
GPGPU-Sim PTX: Warning %p31 was declared previous at b+tree-rodinia-3.1.sm_30.ptx:26 skipping new declaration
GPGPU-Sim PTX: Warning %p32 was declared previous at b+tree-rodinia-3.1.sm_30.ptx:26 skipping new declaration
GPGPU-Sim PTX: Warning %p33 was declared previous at b+tree-rodinia-3.1.sm_30.ptx:26 skipping new declaration
GPGPU-Sim PTX: Warning %p34 was declared previous at b+tree-rodinia-3.1.sm_30.ptx:26 skipping new declaration
GPGPU-Sim PTX: Warning %p35 was declared previous at b+tree-rodinia-3.1.sm_30.ptx:26 skipping new declaration
GPGPU-Sim PTX: Warning %r0 was declared previous at b+tree-rodinia-3.1.sm_30.ptx:27 skipping new declaration
GPGPU-Sim PTX: Warning %r1 was declared previous at b+tree-rodinia-3.1.sm_30.ptx:27 skipping new declaration
GPGPU-Sim PTX: Warning %r2 was declared previous at b+tree-rodinia-3.1.sm_30.ptx:27 skipping new declaration
GPGPU-Sim PTX: Warning %r3 was declared previous at b+tree-rodinia-3.1.sm_30.ptx:27 skipping new declaration
GPGPU-Sim PTX: Warning %r4 was declared previous at b+tree-rodinia-3.1.sm_30.ptx:27 skipping new declaration
GPGPU-Sim PTX: Warning %r5 was declared previous at b+tree-rodinia-3.1.sm_30.ptx:27 skipping new declaration
GPGPU-Sim PTX: Warning %r6 was declared previous at b+tree-rodinia-3.1.sm_30.ptx:27 skipping new declaration
GPGPU-Sim PTX: Warning %r7 was declared previous at b+tree-rodinia-3.1.sm_30.ptx:27 skipping new declaration
GPGPU-Sim PTX: Warning %r8 was declared previous at b+tree-rodinia-3.1.sm_30.ptx:27 skipping new declaration
GPGPU-Sim PTX: Warning %r9 was declared previous at b+tree-rodinia-3.1.sm_30.ptx:27 skipping new declaration
GPGPU-Sim PTX: Warning %r10 was declared previous at b+tree-rodinia-3.1.sm_30.ptx:27 skipping new declaration
GPGPU-Sim PTX: Warning %r11 was declared previous at b+tree-rodinia-3.1.sm_30.ptx:27 skipping new declaration
GPGPU-Sim PTX: Warning %r12 was declared previous at b+tree-rodinia-3.1.sm_30.ptx:27 skipping new declaration
GPGPU-Sim PTX: Warning %r13 was declared previous at b+tree-rodinia-3.1.sm_30.ptx:27 skipping new declaration
GPGPU-Sim PTX: Warning %r14 was declared previous at b+tree-rodinia-3.1.sm_30.ptx:27 skipping new declaration
GPGPU-Sim PTX: Warning %r15 was declared previous at b+tree-rodinia-3.1.sm_30.ptx:27 skipping new declaration
GPGPU-Sim PTX: Warning %r16 was declared previous at b+tree-rodinia-3.1.sm_30.ptx:27 skipping new declaration
GPGPU-Sim PTX: Warning %r17 was declared previous at b+tree-rodinia-3.1.sm_30.ptx:27 skipping new declaration
GPGPU-Sim PTX: Warning %r18 was declared previous at b+tree-rodinia-3.1.sm_30.ptx:27 skipping new declaration
GPGPU-Sim PTX: Warning %r19 was declared previous at b+tree-rodinia-3.1.sm_30.ptx:27 skipping new declaration
GPGPU-Sim PTX: Warning %r20 was declared previous at b+tree-rodinia-3.1.sm_30.ptx:27 skipping new declaration
GPGPU-Sim PTX: Warning %r21 was declared previous at b+tree-rodinia-3.1.sm_30.ptx:27 skipping new declaration
GPGPU-Sim PTX: Warning %r22 was declared previous at b+tree-rodinia-3.1.sm_30.ptx:27 skipping new declaration
GPGPU-Sim PTX: Warning %r23 was declared previous at b+tree-rodinia-3.1.sm_30.ptx:27 skipping new declaration
GPGPU-Sim PTX: Warning %r24 was declared previous at b+tree-rodinia-3.1.sm_30.ptx:27 skipping new declaration
GPGPU-Sim PTX: Warning %r25 was declared previous at b+tree-rodinia-3.1.sm_30.ptx:27 skipping new declaration
GPGPU-Sim PTX: Warning %r26 was declared previous at b+tree-rodinia-3.1.sm_30.ptx:27 skipping new declaration
GPGPU-Sim PTX: Warning %r27 was declared previous at b+tree-rodinia-3.1.sm_30.ptx:27 skipping new declaration
GPGPU-Sim PTX: Warning %r28 was declared previous at b+tree-rodinia-3.1.sm_30.ptx:27 skipping new declaration
GPGPU-Sim PTX: Warning %r29 was declared previous at b+tree-rodinia-3.1.sm_30.ptx:27 skipping new declaration
GPGPU-Sim PTX: Warning %r30 was declared previous at b+tree-rodinia-3.1.sm_30.ptx:27 skipping new declaration
GPGPU-Sim PTX: Warning %r31 was declared previous at b+tree-rodinia-3.1.sm_30.ptx:27 skipping new declaration
GPGPU-Sim PTX: Warning %r32 was declared previous at b+tree-rodinia-3.1.sm_30.ptx:27 skipping new declaration
GPGPU-Sim PTX: Warning %r33 was declared previous at b+tree-rodinia-3.1.sm_30.ptx:27 skipping new declaration
GPGPU-Sim PTX: Warning %r34 was declared previous at b+tree-rodinia-3.1.sm_30.ptx:27 skipping new declaration
GPGPU-Sim PTX: Warning %r35 was declared previous at b+tree-rodinia-3.1.sm_30.ptx:27 skipping new declaration
GPGPU-Sim PTX: Warning %r36 was declared previous at b+tree-rodinia-3.1.sm_30.ptx:27 skipping new declaration
GPGPU-Sim PTX: Warning %r37 was declared previous at b+tree-rodinia-3.1.sm_30.ptx:27 skipping new declaration
GPGPU-Sim PTX: Warning %r38 was declared previous at b+tree-rodinia-3.1.sm_30.ptx:27 skipping new declaration
GPGPU-Sim PTX: Warning %r39 was declared previous at b+tree-rodinia-3.1.sm_30.ptx:27 skipping new declaration
GPGPU-Sim PTX: Warning %r40 was declared previous at b+tree-rodinia-3.1.sm_30.ptx:27 skipping new declaration
GPGPU-Sim PTX: Warning %r41 was declared previous at b+tree-rodinia-3.1.sm_30.ptx:27 skipping new declaration
GPGPU-Sim PTX: Warning %r42 was declared previous at b+tree-rodinia-3.1.sm_30.ptx:27 skipping new declaration
GPGPU-Sim PTX: Warning %r43 was declared previous at b+tree-rodinia-3.1.sm_30.ptx:27 skipping new declaration
GPGPU-Sim PTX: Warning %r44 was declared previous at b+tree-rodinia-3.1.sm_30.ptx:27 skipping new declaration
GPGPU-Sim PTX: Warning %r45 was declared previous at b+tree-rodinia-3.1.sm_30.ptx:27 skipping new declaration
GPGPU-Sim PTX: Warning %r46 was declared previous at b+tree-rodinia-3.1.sm_30.ptx:27 skipping new declaration
GPGPU-Sim PTX: Warning %r47 was declared previous at b+tree-rodinia-3.1.sm_30.ptx:27 skipping new declaration
GPGPU-Sim PTX: Warning %r48 was declared previous at b+tree-rodinia-3.1.sm_30.ptx:27 skipping new declaration
GPGPU-Sim PTX: Warning %r49 was declared previous at b+tree-rodinia-3.1.sm_30.ptx:27 skipping new declaration
GPGPU-Sim PTX: Warning %r50 was declared previous at b+tree-rodinia-3.1.sm_30.ptx:27 skipping new declaration
GPGPU-Sim PTX: Warning %r51 was declared previous at b+tree-rodinia-3.1.sm_30.ptx:27 skipping new declaration
GPGPU-Sim PTX: Warning %r52 was declared previous at b+tree-rodinia-3.1.sm_30.ptx:27 skipping new declaration
GPGPU-Sim PTX: Warning %r53 was declared previous at b+tree-rodinia-3.1.sm_30.ptx:27 skipping new declaration
GPGPU-Sim PTX: Warning %r54 was declared previous at b+tree-rodinia-3.1.sm_30.ptx:27 skipping new declaration
GPGPU-Sim PTX: Warning %r55 was declared previous at b+tree-rodinia-3.1.sm_30.ptx:27 skipping new declaration
GPGPU-Sim PTX: Warning %r56 was declared previous at b+tree-rodinia-3.1.sm_30.ptx:27 skipping new declaration
GPGPU-Sim PTX: Warning %r57 was declared previous at b+tree-rodinia-3.1.sm_30.ptx:27 skipping new declaration
GPGPU-Sim PTX: Warning %r58 was declared previous at b+tree-rodinia-3.1.sm_30.ptx:27 skipping new declaration
GPGPU-Sim PTX: Warning %r59 was declared previous at b+tree-rodinia-3.1.sm_30.ptx:27 skipping new declaration
GPGPU-Sim PTX: Warning %r60 was declared previous at b+tree-rodinia-3.1.sm_30.ptx:27 skipping new declaration
GPGPU-Sim PTX: Warning %r61 was declared previous at b+tree-rodinia-3.1.sm_30.ptx:27 skipping new declaration
GPGPU-Sim PTX: Warning %r62 was declared previous at b+tree-rodinia-3.1.sm_30.ptx:27 skipping new declaration
GPGPU-Sim PTX: Warning %r63 was declared previous at b+tree-rodinia-3.1.sm_30.ptx:27 skipping new declaration
GPGPU-Sim PTX: Warning %r64 was declared previous at b+tree-rodinia-3.1.sm_30.ptx:27 skipping new declaration
GPGPU-Sim PTX: Warning %r65 was declared previous at b+tree-rodinia-3.1.sm_30.ptx:27 skipping new declaration
GPGPU-Sim PTX: Warning %r66 was declared previous at b+tree-rodinia-3.1.sm_30.ptx:27 skipping new declaration
GPGPU-Sim PTX: Warning %r67 was declared previous at b+tree-rodinia-3.1.sm_30.ptx:27 skipping new declaration
GPGPU-Sim PTX: Warning %r68 was declared previous at b+tree-rodinia-3.1.sm_30.ptx:27 skipping new declaration
GPGPU-Sim PTX: Warning %r69 was declared previous at b+tree-rodinia-3.1.sm_30.ptx:27 skipping new declaration
GPGPU-Sim PTX: Warning %r70 was declared previous at b+tree-rodinia-3.1.sm_30.ptx:27 skipping new declaration
GPGPU-Sim PTX: Warning %r71 was declared previous at b+tree-rodinia-3.1.sm_30.ptx:27 skipping new declaration
GPGPU-Sim PTX: Warning %r72 was declared previous at b+tree-rodinia-3.1.sm_30.ptx:27 skipping new declaration
GPGPU-Sim PTX: Warning %r73 was declared previous at b+tree-rodinia-3.1.sm_30.ptx:27 skipping new declaration
GPGPU-Sim PTX: Warning %r74 was declared previous at b+tree-rodinia-3.1.sm_30.ptx:27 skipping new declaration
GPGPU-Sim PTX: Warning %r75 was declared previous at b+tree-rodinia-3.1.sm_30.ptx:27 skipping new declaration
GPGPU-Sim PTX: Warning %r76 was declared previous at b+tree-rodinia-3.1.sm_30.ptx:27 skipping new declaration
GPGPU-Sim PTX: Warning %r77 was declared previous at b+tree-rodinia-3.1.sm_30.ptx:27 skipping new declaration
GPGPU-Sim PTX: Warning %r78 was declared previous at b+tree-rodinia-3.1.sm_30.ptx:27 skipping new declaration
GPGPU-Sim PTX: Warning %r79 was declared previous at b+tree-rodinia-3.1.sm_30.ptx:27 skipping new declaration
GPGPU-Sim PTX: Warning %r80 was declared previous at b+tree-rodinia-3.1.sm_30.ptx:27 skipping new declaration
GPGPU-Sim PTX: Warning %r81 was declared previous at b+tree-rodinia-3.1.sm_30.ptx:27 skipping new declaration
GPGPU-Sim PTX: Warning %r82 was declared previous at b+tree-rodinia-3.1.sm_30.ptx:27 skipping new declaration
GPGPU-Sim PTX: Warning %r83 was declared previous at b+tree-rodinia-3.1.sm_30.ptx:27 skipping new declaration
GPGPU-Sim PTX: Warning %r84 was declared previous at b+tree-rodinia-3.1.sm_30.ptx:27 skipping new declaration
GPGPU-Sim PTX: Warning %r85 was declared previous at b+tree-rodinia-3.1.sm_30.ptx:27 skipping new declaration
GPGPU-Sim PTX: Warning %r86 was declared previous at b+tree-rodinia-3.1.sm_30.ptx:27 skipping new declaration
GPGPU-Sim PTX: Warning %r87 was declared previous at b+tree-rodinia-3.1.sm_30.ptx:27 skipping new declaration
GPGPU-Sim PTX: Warning %r88 was declared previous at b+tree-rodinia-3.1.sm_30.ptx:27 skipping new declaration
GPGPU-Sim PTX: Warning %r89 was declared previous at b+tree-rodinia-3.1.sm_30.ptx:27 skipping new declaration
GPGPU-Sim PTX: Warning %r90 was declared previous at b+tree-rodinia-3.1.sm_30.ptx:27 skipping new declaration
GPGPU-Sim PTX: Warning %r91 was declared previous at b+tree-rodinia-3.1.sm_30.ptx:27 skipping new declaration
GPGPU-Sim PTX: Warning %r92 was declared previous at b+tree-rodinia-3.1.sm_30.ptx:27 skipping new declaration
GPGPU-Sim PTX: Warning %r93 was declared previous at b+tree-rodinia-3.1.sm_30.ptx:27 skipping new declaration
GPGPU-Sim PTX: Warning %r94 was declared previous at b+tree-rodinia-3.1.sm_30.ptx:27 skipping new declaration
GPGPU-Sim PTX: Warning %rd0 was declared previous at b+tree-rodinia-3.1.sm_30.ptx:28 skipping new declaration
GPGPU-Sim PTX: Warning %rd1 was declared previous at b+tree-rodinia-3.1.sm_30.ptx:28 skipping new declaration
GPGPU-Sim PTX: Warning %rd2 was declared previous at b+tree-rodinia-3.1.sm_30.ptx:28 skipping new declaration
GPGPU-Sim PTX: Warning %rd3 was declared previous at b+tree-rodinia-3.1.sm_30.ptx:28 skipping new declaration
GPGPU-Sim PTX: Warning %rd4 was declared previous at b+tree-rodinia-3.1.sm_30.ptx:28 skipping new declaration
GPGPU-Sim PTX: Warning %rd5 was declared previous at b+tree-rodinia-3.1.sm_30.ptx:28 skipping new declaration
GPGPU-Sim PTX: Warning %rd6 was declared previous at b+tree-rodinia-3.1.sm_30.ptx:28 skipping new declaration
GPGPU-Sim PTX: Warning %rd7 was declared previous at b+tree-rodinia-3.1.sm_30.ptx:28 skipping new declaration
GPGPU-Sim PTX: Warning %rd8 was declared previous at b+tree-rodinia-3.1.sm_30.ptx:28 skipping new declaration
GPGPU-Sim PTX: Warning %rd9 was declared previous at b+tree-rodinia-3.1.sm_30.ptx:28 skipping new declaration
GPGPU-Sim PTX: Warning %rd10 was declared previous at b+tree-rodinia-3.1.sm_30.ptx:28 skipping new declaration
GPGPU-Sim PTX: Warning %rd11 was declared previous at b+tree-rodinia-3.1.sm_30.ptx:28 skipping new declaration
GPGPU-Sim PTX: Warning %rd12 was declared previous at b+tree-rodinia-3.1.sm_30.ptx:28 skipping new declaration
GPGPU-Sim PTX: Warning %rd13 was declared previous at b+tree-rodinia-3.1.sm_30.ptx:28 skipping new declaration
GPGPU-Sim PTX: Warning %rd14 was declared previous at b+tree-rodinia-3.1.sm_30.ptx:28 skipping new declaration
GPGPU-Sim PTX: Warning %rd15 was declared previous at b+tree-rodinia-3.1.sm_30.ptx:28 skipping new declaration
GPGPU-Sim PTX: Warning %rd16 was declared previous at b+tree-rodinia-3.1.sm_30.ptx:28 skipping new declaration
GPGPU-Sim PTX: Warning %rd17 was declared previous at b+tree-rodinia-3.1.sm_30.ptx:28 skipping new declaration
GPGPU-Sim PTX: Warning %rd18 was declared previous at b+tree-rodinia-3.1.sm_30.ptx:28 skipping new declaration
GPGPU-Sim PTX: Warning %rd19 was declared previous at b+tree-rodinia-3.1.sm_30.ptx:28 skipping new declaration
GPGPU-Sim PTX: Warning %rd20 was declared previous at b+tree-rodinia-3.1.sm_30.ptx:28 skipping new declaration
GPGPU-Sim PTX: Warning %rd21 was declared previous at b+tree-rodinia-3.1.sm_30.ptx:28 skipping new declaration
GPGPU-Sim PTX: Warning %rd22 was declared previous at b+tree-rodinia-3.1.sm_30.ptx:28 skipping new declaration
GPGPU-Sim PTX: Warning %rd23 was declared previous at b+tree-rodinia-3.1.sm_30.ptx:28 skipping new declaration
GPGPU-Sim PTX: Warning %rd24 was declared previous at b+tree-rodinia-3.1.sm_30.ptx:28 skipping new declaration
GPGPU-Sim PTX: Warning %rd25 was declared previous at b+tree-rodinia-3.1.sm_30.ptx:28 skipping new declaration
GPGPU-Sim PTX: Warning %rd26 was declared previous at b+tree-rodinia-3.1.sm_30.ptx:28 skipping new declaration
GPGPU-Sim PTX: Warning %rd27 was declared previous at b+tree-rodinia-3.1.sm_30.ptx:28 skipping new declaration
GPGPU-Sim PTX: Warning %rd28 was declared previous at b+tree-rodinia-3.1.sm_30.ptx:28 skipping new declaration
GPGPU-Sim PTX: Warning %rd29 was declared previous at b+tree-rodinia-3.1.sm_30.ptx:28 skipping new declaration
GPGPU-Sim PTX: Warning %rd30 was declared previous at b+tree-rodinia-3.1.sm_30.ptx:28 skipping new declaration
GPGPU-Sim PTX: Warning %rd31 was declared previous at b+tree-rodinia-3.1.sm_30.ptx:28 skipping new declaration
GPGPU-Sim PTX: Warning %rd32 was declared previous at b+tree-rodinia-3.1.sm_30.ptx:28 skipping new declaration
GPGPU-Sim PTX: Warning %rd33 was declared previous at b+tree-rodinia-3.1.sm_30.ptx:28 skipping new declaration
GPGPU-Sim PTX: Warning %rd34 was declared previous at b+tree-rodinia-3.1.sm_30.ptx:28 skipping new declaration
GPGPU-Sim PTX: Warning %rd35 was declared previous at b+tree-rodinia-3.1.sm_30.ptx:28 skipping new declaration
GPGPU-Sim PTX: Warning %rd36 was declared previous at b+tree-rodinia-3.1.sm_30.ptx:28 skipping new declaration
GPGPU-Sim PTX: Warning %rd37 was declared previous at b+tree-rodinia-3.1.sm_30.ptx:28 skipping new declaration
GPGPU-Sim PTX: Warning %rd38 was declared previous at b+tree-rodinia-3.1.sm_30.ptx:28 skipping new declaration
GPGPU-Sim PTX: Warning %rd39 was declared previous at b+tree-rodinia-3.1.sm_30.ptx:28 skipping new declaration
GPGPU-Sim PTX: Warning %rd40 was declared previous at b+tree-rodinia-3.1.sm_30.ptx:28 skipping new declaration
GPGPU-Sim PTX: Warning %rd41 was declared previous at b+tree-rodinia-3.1.sm_30.ptx:28 skipping new declaration
GPGPU-Sim PTX: Warning %rd42 was declared previous at b+tree-rodinia-3.1.sm_30.ptx:28 skipping new declaration
GPGPU-Sim PTX: Warning %rd43 was declared previous at b+tree-rodinia-3.1.sm_30.ptx:28 skipping new declaration
GPGPU-Sim PTX: Warning %rd44 was declared previous at b+tree-rodinia-3.1.sm_30.ptx:28 skipping new declaration
GPGPU-Sim PTX: Warning %rd45 was declared previous at b+tree-rodinia-3.1.sm_30.ptx:28 skipping new declaration
GPGPU-Sim PTX: Warning %rd46 was declared previous at b+tree-rodinia-3.1.sm_30.ptx:28 skipping new declaration
GPGPU-Sim PTX: Warning %rd47 was declared previous at b+tree-rodinia-3.1.sm_30.ptx:28 skipping new declaration
GPGPU-Sim PTX: Warning %rd48 was declared previous at b+tree-rodinia-3.1.sm_30.ptx:28 skipping new declaration
GPGPU-Sim PTX: Warning %rd49 was declared previous at b+tree-rodinia-3.1.sm_30.ptx:28 skipping new declaration
GPGPU-Sim PTX: Warning %rd50 was declared previous at b+tree-rodinia-3.1.sm_30.ptx:28 skipping new declaration
GPGPU-Sim PTX: Warning %rd51 was declared previous at b+tree-rodinia-3.1.sm_30.ptx:28 skipping new declaration
GPGPU-Sim PTX: Warning %rd52 was declared previous at b+tree-rodinia-3.1.sm_30.ptx:28 skipping new declaration
GPGPU-Sim PTX: Warning %rd53 was declared previous at b+tree-rodinia-3.1.sm_30.ptx:28 skipping new declaration
GPGPU-Sim PTX: Warning %rd54 was declared previous at b+tree-rodinia-3.1.sm_30.ptx:28 skipping new declaration
GPGPU-Sim PTX: Warning %rd55 was declared previous at b+tree-rodinia-3.1.sm_30.ptx:28 skipping new declaration
GPGPU-Sim PTX: Warning %rd56 was declared previous at b+tree-rodinia-3.1.sm_30.ptx:28 skipping new declaration
GPGPU-Sim PTX: Warning %rd57 was declared previous at b+tree-rodinia-3.1.sm_30.ptx:28 skipping new declaration
GPGPU-Sim PTX: Warning %rd58 was declared previous at b+tree-rodinia-3.1.sm_30.ptx:28 skipping new declaration
GPGPU-Sim PTX: Warning %rd59 was declared previous at b+tree-rodinia-3.1.sm_30.ptx:28 skipping new declaration
GPGPU-Sim PTX: Warning %rd60 was declared previous at b+tree-rodinia-3.1.sm_30.ptx:28 skipping new declaration
GPGPU-Sim PTX: Warning %rd61 was declared previous at b+tree-rodinia-3.1.sm_30.ptx:28 skipping new declaration
GPGPU-Sim PTX: Warning %rd62 was declared previous at b+tree-rodinia-3.1.sm_30.ptx:28 skipping new declaration
GPGPU-Sim PTX: Warning %rd63 was declared previous at b+tree-rodinia-3.1.sm_30.ptx:28 skipping new declaration
GPGPU-Sim PTX: Warning %rd64 was declared previous at b+tree-rodinia-3.1.sm_30.ptx:28 skipping new declaration
GPGPU-Sim PTX: Warning %rd65 was declared previous at b+tree-rodinia-3.1.sm_30.ptx:28 skipping new declaration
GPGPU-Sim PTX: Warning %rd66 was declared previous at b+tree-rodinia-3.1.sm_30.ptx:28 skipping new declaration
GPGPU-Sim PTX: Warning %rd67 was declared previous at b+tree-rodinia-3.1.sm_30.ptx:28 skipping new declaration
GPGPU-Sim PTX: Warning %rd68 was declared previous at b+tree-rodinia-3.1.sm_30.ptx:28 skipping new declaration
GPGPU-Sim PTX: Warning %rd69 was declared previous at b+tree-rodinia-3.1.sm_30.ptx:28 skipping new declaration
GPGPU-Sim PTX: Warning %rd70 was declared previous at b+tree-rodinia-3.1.sm_30.ptx:28 skipping new declaration
GPGPU-Sim PTX: Warning %rd71 was declared previous at b+tree-rodinia-3.1.sm_30.ptx:28 skipping new declaration
GPGPU-Sim PTX: Warning %rd72 was declared previous at b+tree-rodinia-3.1.sm_30.ptx:28 skipping new declaration
GPGPU-Sim PTX: Warning %rd73 was declared previous at b+tree-rodinia-3.1.sm_30.ptx:28 skipping new declaration
GPGPU-Sim PTX: Warning %rd74 was declared previous at b+tree-rodinia-3.1.sm_30.ptx:28 skipping new declaration
GPGPU-Sim PTX: Warning %rd75 was declared previous at b+tree-rodinia-3.1.sm_30.ptx:28 skipping new declaration
GPGPU-Sim PTX: Warning %rd76 was declared previous at b+tree-rodinia-3.1.sm_30.ptx:28 skipping new declaration
GPGPU-Sim PTX: Warning %rd77 was declared previous at b+tree-rodinia-3.1.sm_30.ptx:28 skipping new declaration
GPGPU-Sim PTX: Warning %rd78 was declared previous at b+tree-rodinia-3.1.sm_30.ptx:28 skipping new declaration
GPGPU-Sim PTX: Warning %rd79 was declared previous at b+tree-rodinia-3.1.sm_30.ptx:28 skipping new declaration
GPGPU-Sim PTX: Warning %rd80 was declared previous at b+tree-rodinia-3.1.sm_30.ptx:28 skipping new declaration
GPGPU-Sim PTX: Warning %rd81 was declared previous at b+tree-rodinia-3.1.sm_30.ptx:28 skipping new declaration
GPGPU-Sim PTX: Warning %rd82 was declared previous at b+tree-rodinia-3.1.sm_30.ptx:28 skipping new declaration
GPGPU-Sim PTX: Warning %rd83 was declared previous at b+tree-rodinia-3.1.sm_30.ptx:28 skipping new declaration
GPGPU-Sim PTX: Warning %rd84 was declared previous at b+tree-rodinia-3.1.sm_30.ptx:28 skipping new declaration
GPGPU-Sim PTX: Warning %rd85 was declared previous at b+tree-rodinia-3.1.sm_30.ptx:28 skipping new declaration
GPGPU-Sim PTX: Warning %rd86 was declared previous at b+tree-rodinia-3.1.sm_30.ptx:28 skipping new declaration
GPGPU-Sim PTX: Warning %rd87 was declared previous at b+tree-rodinia-3.1.sm_30.ptx:28 skipping new declaration
GPGPU-Sim PTX: Warning %rd88 was declared previous at b+tree-rodinia-3.1.sm_30.ptx:28 skipping new declaration
GPGPU-Sim PTX: Warning %rd89 was declared previous at b+tree-rodinia-3.1.sm_30.ptx:28 skipping new declaration
GPGPU-Sim PTX: Warning %rd90 was declared previous at b+tree-rodinia-3.1.sm_30.ptx:28 skipping new declaration
GPGPU-Sim PTX: Warning %rd91 was declared previous at b+tree-rodinia-3.1.sm_30.ptx:28 skipping new declaration
GPGPU-Sim PTX: Warning %rd92 was declared previous at b+tree-rodinia-3.1.sm_30.ptx:28 skipping new declaration
GPGPU-Sim PTX: Warning %rd93 was declared previous at b+tree-rodinia-3.1.sm_30.ptx:28 skipping new declaration
GPGPU-Sim PTX: Warning %rd94 was declared previous at b+tree-rodinia-3.1.sm_30.ptx:28 skipping new declaration
GPGPU-Sim PTX: Warning %rd95 was declared previous at b+tree-rodinia-3.1.sm_30.ptx:28 skipping new declaration
GPGPU-Sim PTX: Warning %rd96 was declared previous at b+tree-rodinia-3.1.sm_30.ptx:28 skipping new declaration
GPGPU-Sim PTX: Warning %rd97 was declared previous at b+tree-rodinia-3.1.sm_30.ptx:28 skipping new declaration
GPGPU-Sim PTX: Warning %rd98 was declared previous at b+tree-rodinia-3.1.sm_30.ptx:28 skipping new declaration
GPGPU-Sim PTX: Warning %rd99 was declared previous at b+tree-rodinia-3.1.sm_30.ptx:28 skipping new declaration
GPGPU-Sim PTX: Warning %rd100 was declared previous at b+tree-rodinia-3.1.sm_30.ptx:28 skipping new declaration
GPGPU-Sim PTX: Warning %rd101 was declared previous at b+tree-rodinia-3.1.sm_30.ptx:28 skipping new declaration
GPGPU-Sim PTX: Warning %rd102 was declared previous at b+tree-rodinia-3.1.sm_30.ptx:28 skipping new declaration
GPGPU-Sim PTX: Warning %rd103 was declared previous at b+tree-rodinia-3.1.sm_30.ptx:28 skipping new declaration
GPGPU-Sim PTX: Warning %rd104 was declared previous at b+tree-rodinia-3.1.sm_30.ptx:28 skipping new declaration
GPGPU-Sim PTX: Warning %rd105 was declared previous at b+tree-rodinia-3.1.sm_30.ptx:28 skipping new declaration
GPGPU-Sim PTX: Warning %rd106 was declared previous at b+tree-rodinia-3.1.sm_30.ptx:28 skipping new declaration
GPGPU-Sim PTX: Warning %rd107 was declared previous at b+tree-rodinia-3.1.sm_30.ptx:28 skipping new declaration
GPGPU-Sim PTX: Warning %rd108 was declared previous at b+tree-rodinia-3.1.sm_30.ptx:28 skipping new declaration
GPGPU-Sim PTX: Warning %rd109 was declared previous at b+tree-rodinia-3.1.sm_30.ptx:28 skipping new declaration
GPGPU-Sim PTX: Warning %rd110 was declared previous at b+tree-rodinia-3.1.sm_30.ptx:28 skipping new declaration
GPGPU-Sim PTX: Warning %rd111 was declared previous at b+tree-rodinia-3.1.sm_30.ptx:28 skipping new declaration
GPGPU-Sim PTX: Warning %rd112 was declared previous at b+tree-rodinia-3.1.sm_30.ptx:28 skipping new declaration
GPGPU-Sim PTX: Warning %rd113 was declared previous at b+tree-rodinia-3.1.sm_30.ptx:28 skipping new declaration
GPGPU-Sim PTX: Warning %rd114 was declared previous at b+tree-rodinia-3.1.sm_30.ptx:28 skipping new declaration
GPGPU-Sim PTX: Warning %rd115 was declared previous at b+tree-rodinia-3.1.sm_30.ptx:28 skipping new declaration
GPGPU-Sim PTX: Warning %rd116 was declared previous at b+tree-rodinia-3.1.sm_30.ptx:28 skipping new declaration
GPGPU-Sim PTX: Warning %rd117 was declared previous at b+tree-rodinia-3.1.sm_30.ptx:28 skipping new declaration
GPGPU-Sim PTX: Warning %rd118 was declared previous at b+tree-rodinia-3.1.sm_30.ptx:28 skipping new declaration
GPGPU-Sim PTX: Warning %rd119 was declared previous at b+tree-rodinia-3.1.sm_30.ptx:28 skipping new declaration
GPGPU-Sim PTX: Warning %rd120 was declared previous at b+tree-rodinia-3.1.sm_30.ptx:28 skipping new declaration
GPGPU-Sim PTX: Warning %rd121 was declared previous at b+tree-rodinia-3.1.sm_30.ptx:28 skipping new declaration
GPGPU-Sim PTX: Warning %rd122 was declared previous at b+tree-rodinia-3.1.sm_30.ptx:28 skipping new declaration
GPGPU-Sim PTX: Warning %rd123 was declared previous at b+tree-rodinia-3.1.sm_30.ptx:28 skipping new declaration
GPGPU-Sim PTX: Warning %rd124 was declared previous at b+tree-rodinia-3.1.sm_30.ptx:28 skipping new declaration
GPGPU-Sim PTX: Warning %rd125 was declared previous at b+tree-rodinia-3.1.sm_30.ptx:28 skipping new declaration
GPGPU-Sim PTX: Warning %rd126 was declared previous at b+tree-rodinia-3.1.sm_30.ptx:28 skipping new declaration
GPGPU-Sim PTX: Warning %rd127 was declared previous at b+tree-rodinia-3.1.sm_30.ptx:28 skipping new declaration
GPGPU-Sim PTX: Warning %rd128 was declared previous at b+tree-rodinia-3.1.sm_30.ptx:28 skipping new declaration
GPGPU-Sim PTX: Warning %rd129 was declared previous at b+tree-rodinia-3.1.sm_30.ptx:28 skipping new declaration
GPGPU-Sim PTX: Warning %rd130 was declared previous at b+tree-rodinia-3.1.sm_30.ptx:28 skipping new declaration
GPGPU-Sim PTX: Warning %rd131 was declared previous at b+tree-rodinia-3.1.sm_30.ptx:28 skipping new declaration
GPGPU-Sim PTX: Warning %rd132 was declared previous at b+tree-rodinia-3.1.sm_30.ptx:28 skipping new declaration
GPGPU-Sim PTX: Warning %rd133 was declared previous at b+tree-rodinia-3.1.sm_30.ptx:28 skipping new declaration
GPGPU-Sim PTX: Warning %rd134 was declared previous at b+tree-rodinia-3.1.sm_30.ptx:28 skipping new declaration
GPGPU-Sim PTX: Warning %rd135 was declared previous at b+tree-rodinia-3.1.sm_30.ptx:28 skipping new declaration
GPGPU-Sim PTX: Warning %rd136 was declared previous at b+tree-rodinia-3.1.sm_30.ptx:28 skipping new declaration
GPGPU-Sim PTX: Warning %rd137 was declared previous at b+tree-rodinia-3.1.sm_30.ptx:28 skipping new declaration
GPGPU-Sim PTX: Warning %rd138 was declared previous at b+tree-rodinia-3.1.sm_30.ptx:28 skipping new declaration
GPGPU-Sim PTX: Warning %rd139 was declared previous at b+tree-rodinia-3.1.sm_30.ptx:28 skipping new declaration
GPGPU-Sim PTX: Warning %rd140 was declared previous at b+tree-rodinia-3.1.sm_30.ptx:28 skipping new declaration
GPGPU-Sim PTX: Warning %rd141 was declared previous at b+tree-rodinia-3.1.sm_30.ptx:28 skipping new declaration
GPGPU-Sim PTX: Warning %rd142 was declared previous at b+tree-rodinia-3.1.sm_30.ptx:28 skipping new declaration
GPGPU-Sim PTX: Warning %rd143 was declared previous at b+tree-rodinia-3.1.sm_30.ptx:28 skipping new declaration
GPGPU-Sim PTX: Warning %rd144 was declared previous at b+tree-rodinia-3.1.sm_30.ptx:28 skipping new declaration
GPGPU-Sim PTX: Warning %rd145 was declared previous at b+tree-rodinia-3.1.sm_30.ptx:28 skipping new declaration
GPGPU-Sim PTX: Warning %rd146 was declared previous at b+tree-rodinia-3.1.sm_30.ptx:28 skipping new declaration
GPGPU-Sim PTX: Warning %rd147 was declared previous at b+tree-rodinia-3.1.sm_30.ptx:28 skipping new declaration
GPGPU-Sim PTX: Warning %rd148 was declared previous at b+tree-rodinia-3.1.sm_30.ptx:28 skipping new declaration
GPGPU-Sim PTX: Warning %rd149 was declared previous at b+tree-rodinia-3.1.sm_30.ptx:28 skipping new declaration
GPGPU-Sim PTX: Warning %rd150 was declared previous at b+tree-rodinia-3.1.sm_30.ptx:28 skipping new declaration
GPGPU-Sim PTX: Warning %rd151 was declared previous at b+tree-rodinia-3.1.sm_30.ptx:28 skipping new declaration
GPGPU-Sim PTX: Warning %rd152 was declared previous at b+tree-rodinia-3.1.sm_30.ptx:28 skipping new declaration
GPGPU-Sim PTX: Warning %rd153 was declared previous at b+tree-rodinia-3.1.sm_30.ptx:28 skipping new declaration
GPGPU-Sim PTX: Warning %rd154 was declared previous at b+tree-rodinia-3.1.sm_30.ptx:28 skipping new declaration
GPGPU-Sim PTX: Warning %rd155 was declared previous at b+tree-rodinia-3.1.sm_30.ptx:28 skipping new declaration
GPGPU-Sim PTX: Warning %rd156 was declared previous at b+tree-rodinia-3.1.sm_30.ptx:28 skipping new declaration
GPGPU-Sim PTX: Warning %rd157 was declared previous at b+tree-rodinia-3.1.sm_30.ptx:28 skipping new declaration
GPGPU-Sim PTX: Warning %rd158 was declared previous at b+tree-rodinia-3.1.sm_30.ptx:28 skipping new declaration
GPGPU-Sim PTX: Warning %rd159 was declared previous at b+tree-rodinia-3.1.sm_30.ptx:28 skipping new declaration
GPGPU-Sim PTX: Warning %rd160 was declared previous at b+tree-rodinia-3.1.sm_30.ptx:28 skipping new declaration
GPGPU-Sim PTX: Warning %rd161 was declared previous at b+tree-rodinia-3.1.sm_30.ptx:28 skipping new declaration
GPGPU-Sim PTX: Warning %rd162 was declared previous at b+tree-rodinia-3.1.sm_30.ptx:28 skipping new declaration
GPGPU-Sim PTX: Warning %rd163 was declared previous at b+tree-rodinia-3.1.sm_30.ptx:28 skipping new declaration
GPGPU-Sim PTX: Warning %rd164 was declared previous at b+tree-rodinia-3.1.sm_30.ptx:28 skipping new declaration
GPGPU-Sim PTX: Warning %rd165 was declared previous at b+tree-rodinia-3.1.sm_30.ptx:28 skipping new declaration
GPGPU-Sim PTX: Warning %rd166 was declared previous at b+tree-rodinia-3.1.sm_30.ptx:28 skipping new declaration
GPGPU-Sim PTX: Warning %rd167 was declared previous at b+tree-rodinia-3.1.sm_30.ptx:28 skipping new declaration
GPGPU-Sim PTX: Warning %rd168 was declared previous at b+tree-rodinia-3.1.sm_30.ptx:28 skipping new declaration
GPGPU-Sim PTX: Warning %rd169 was declared previous at b+tree-rodinia-3.1.sm_30.ptx:28 skipping new declaration
GPGPU-Sim PTX: Warning %rd170 was declared previous at b+tree-rodinia-3.1.sm_30.ptx:28 skipping new declaration
GPGPU-Sim PTX: Warning %rd171 was declared previous at b+tree-rodinia-3.1.sm_30.ptx:28 skipping new declaration
GPGPU-Sim PTX: Warning %rd172 was declared previous at b+tree-rodinia-3.1.sm_30.ptx:28 skipping new declaration
GPGPU-Sim PTX: Warning %rd173 was declared previous at b+tree-rodinia-3.1.sm_30.ptx:28 skipping new declaration
GPGPU-Sim PTX: instruction assembly for function 'findK'...   done.
GPGPU-Sim PTX: finished parsing EMBEDDED .ptx file b+tree-rodinia-3.2.sm_35.ptx
GPGPU-Sim PTX: Parsing b+tree-rodinia-3.8.sm_35.ptx
GPGPU-Sim PTX: Warning %p0 was declared previous at b+tree-rodinia-3.7.sm_30.ptx:29 skipping new declaration
GPGPU-Sim PTX: Warning %p1 was declared previous at b+tree-rodinia-3.7.sm_30.ptx:29 skipping new declaration
GPGPU-Sim PTX: Warning %p2 was declared previous at b+tree-rodinia-3.7.sm_30.ptx:29 skipping new declaration
GPGPU-Sim PTX: Warning %p3 was declared previous at b+tree-rodinia-3.7.sm_30.ptx:29 skipping new declaration
GPGPU-Sim PTX: Warning %p4 was declared previous at b+tree-rodinia-3.7.sm_30.ptx:29 skipping new declaration
GPGPU-Sim PTX: Warning %p5 was declared previous at b+tree-rodinia-3.7.sm_30.ptx:29 skipping new declaration
GPGPU-Sim PTX: Warning %p6 was declared previous at b+tree-rodinia-3.7.sm_30.ptx:29 skipping new declaration
GPGPU-Sim PTX: Warning %p7 was declared previous at b+tree-rodinia-3.7.sm_30.ptx:29 skipping new declaration
GPGPU-Sim PTX: Warning %p8 was declared previous at b+tree-rodinia-3.7.sm_30.ptx:29 skipping new declaration
GPGPU-Sim PTX: Warning %p9 was declared previous at b+tree-rodinia-3.7.sm_30.ptx:29 skipping new declaration
GPGPU-Sim PTX: Warning %p10 was declared previous at b+tree-rodinia-3.7.sm_30.ptx:29 skipping new declaration
GPGPU-Sim PTX: Warning %p11 was declared previous at b+tree-rodinia-3.7.sm_30.ptx:29 skipping new declaration
GPGPU-Sim PTX: Warning %p12 was declared previous at b+tree-rodinia-3.7.sm_30.ptx:29 skipping new declaration
GPGPU-Sim PTX: Warning %p13 was declared previous at b+tree-rodinia-3.7.sm_30.ptx:29 skipping new declaration
GPGPU-Sim PTX: Warning %p14 was declared previous at b+tree-rodinia-3.7.sm_30.ptx:29 skipping new declaration
GPGPU-Sim PTX: Warning %p15 was declared previous at b+tree-rodinia-3.7.sm_30.ptx:29 skipping new declaration
GPGPU-Sim PTX: Warning %p16 was declared previous at b+tree-rodinia-3.7.sm_30.ptx:29 skipping new declaration
GPGPU-Sim PTX: Warning %p17 was declared previous at b+tree-rodinia-3.7.sm_30.ptx:29 skipping new declaration
GPGPU-Sim PTX: Warning %p18 was declared previous at b+tree-rodinia-3.7.sm_30.ptx:29 skipping new declaration
GPGPU-Sim PTX: Warning %p19 was declared previous at b+tree-rodinia-3.7.sm_30.ptx:29 skipping new declaration
GPGPU-Sim PTX: Warning %p20 was declared previous at b+tree-rodinia-3.7.sm_30.ptx:29 skipping new declaration
GPGPU-Sim PTX: Warning %p21 was declared previous at b+tree-rodinia-3.7.sm_30.ptx:29 skipping new declaration
GPGPU-Sim PTX: Warning %p22 was declared previous at b+tree-rodinia-3.7.sm_30.ptx:29 skipping new declaration
GPGPU-Sim PTX: Warning %p23 was declared previous at b+tree-rodinia-3.7.sm_30.ptx:29 skipping new declaration
GPGPU-Sim PTX: Warning %p24 was declared previous at b+tree-rodinia-3.7.sm_30.ptx:29 skipping new declaration
GPGPU-Sim PTX: Warning %p25 was declared previous at b+tree-rodinia-3.7.sm_30.ptx:29 skipping new declaration
GPGPU-Sim PTX: Warning %p26 was declared previous at b+tree-rodinia-3.7.sm_30.ptx:29 skipping new declaration
GPGPU-Sim PTX: Warning %p27 was declared previous at b+tree-rodinia-3.7.sm_30.ptx:29 skipping new declaration
GPGPU-Sim PTX: Warning %p28 was declared previous at b+tree-rodinia-3.7.sm_30.ptx:29 skipping new declaration
GPGPU-Sim PTX: Warning %p29 was declared previous at b+tree-rodinia-3.7.sm_30.ptx:29 skipping new declaration
GPGPU-Sim PTX: Warning %p30 was declared previous at b+tree-rodinia-3.7.sm_30.ptx:29 skipping new declaration
GPGPU-Sim PTX: Warning %p31 was declared previous at b+tree-rodinia-3.7.sm_30.ptx:29 skipping new declaration
GPGPU-Sim PTX: Warning %p32 was declared previous at b+tree-rodinia-3.7.sm_30.ptx:29 skipping new declaration
GPGPU-Sim PTX: Warning %p33 was declared previous at b+tree-rodinia-3.7.sm_30.ptx:29 skipping new declaration
GPGPU-Sim PTX: Warning %p34 was declared previous at b+tree-rodinia-3.7.sm_30.ptx:29 skipping new declaration
GPGPU-Sim PTX: Warning %p35 was declared previous at b+tree-rodinia-3.7.sm_30.ptx:29 skipping new declaration
GPGPU-Sim PTX: Warning %p36 was declared previous at b+tree-rodinia-3.7.sm_30.ptx:29 skipping new declaration
GPGPU-Sim PTX: Warning %p37 was declared previous at b+tree-rodinia-3.7.sm_30.ptx:29 skipping new declaration
GPGPU-Sim PTX: Warning %p38 was declared previous at b+tree-rodinia-3.7.sm_30.ptx:29 skipping new declaration
GPGPU-Sim PTX: Warning %p39 was declared previous at b+tree-rodinia-3.7.sm_30.ptx:29 skipping new declaration
GPGPU-Sim PTX: Warning %p40 was declared previous at b+tree-rodinia-3.7.sm_30.ptx:29 skipping new declaration
GPGPU-Sim PTX: Warning %p41 was declared previous at b+tree-rodinia-3.7.sm_30.ptx:29 skipping new declaration
GPGPU-Sim PTX: Warning %p42 was declared previous at b+tree-rodinia-3.7.sm_30.ptx:29 skipping new declaration
GPGPU-Sim PTX: Warning %p43 was declared previous at b+tree-rodinia-3.7.sm_30.ptx:29 skipping new declaration
GPGPU-Sim PTX: Warning %p44 was declared previous at b+tree-rodinia-3.7.sm_30.ptx:29 skipping new declaration
GPGPU-Sim PTX: Warning %p45 was declared previous at b+tree-rodinia-3.7.sm_30.ptx:29 skipping new declaration
GPGPU-Sim PTX: Warning %p46 was declared previous at b+tree-rodinia-3.7.sm_30.ptx:29 skipping new declaration
GPGPU-Sim PTX: Warning %p47 was declared previous at b+tree-rodinia-3.7.sm_30.ptx:29 skipping new declaration
GPGPU-Sim PTX: Warning %p48 was declared previous at b+tree-rodinia-3.7.sm_30.ptx:29 skipping new declaration
GPGPU-Sim PTX: Warning %p49 was declared previous at b+tree-rodinia-3.7.sm_30.ptx:29 skipping new declaration
GPGPU-Sim PTX: Warning %p50 was declared previous at b+tree-rodinia-3.7.sm_30.ptx:29 skipping new declaration
GPGPU-Sim PTX: Warning %p51 was declared previous at b+tree-rodinia-3.7.sm_30.ptx:29 skipping new declaration
GPGPU-Sim PTX: Warning %p52 was declared previous at b+tree-rodinia-3.7.sm_30.ptx:29 skipping new declaration
GPGPU-Sim PTX: Warning %p53 was declared previous at b+tree-rodinia-3.7.sm_30.ptx:29 skipping new declaration
GPGPU-Sim PTX: Warning %p54 was declared previous at b+tree-rodinia-3.7.sm_30.ptx:29 skipping new declaration
GPGPU-Sim PTX: Warning %p55 was declared previous at b+tree-rodinia-3.7.sm_30.ptx:29 skipping new declaration
GPGPU-Sim PTX: Warning %p56 was declared previous at b+tree-rodinia-3.7.sm_30.ptx:29 skipping new declaration
GPGPU-Sim PTX: Warning %p57 was declared previous at b+tree-rodinia-3.7.sm_30.ptx:29 skipping new declaration
GPGPU-Sim PTX: Warning %r0 was declared previous at b+tree-rodinia-3.7.sm_30.ptx:30 skipping new declaration
GPGPU-Sim PTX: Warning %r1 was declared previous at b+tree-rodinia-3.7.sm_30.ptx:30 skipping new declaration
GPGPU-Sim PTX: Warning %r2 was declared previous at b+tree-rodinia-3.7.sm_30.ptx:30 skipping new declaration
GPGPU-Sim PTX: Warning %r3 was declared previous at b+tree-rodinia-3.7.sm_30.ptx:30 skipping new declaration
GPGPU-Sim PTX: Warning %r4 was declared previous at b+tree-rodinia-3.7.sm_30.ptx:30 skipping new declaration
GPGPU-Sim PTX: Warning %r5 was declared previous at b+tree-rodinia-3.7.sm_30.ptx:30 skipping new declaration
GPGPU-Sim PTX: Warning %r6 was declared previous at b+tree-rodinia-3.7.sm_30.ptx:30 skipping new declaration
GPGPU-Sim PTX: Warning %r7 was declared previous at b+tree-rodinia-3.7.sm_30.ptx:30 skipping new declaration
GPGPU-Sim PTX: Warning %r8 was declared previous at b+tree-rodinia-3.7.sm_30.ptx:30 skipping new declaration
GPGPU-Sim PTX: Warning %r9 was declared previous at b+tree-rodinia-3.7.sm_30.ptx:30 skipping new declaration
GPGPU-Sim PTX: Warning %r10 was declared previous at b+tree-rodinia-3.7.sm_30.ptx:30 skipping new declaration
GPGPU-Sim PTX: Warning %r11 was declared previous at b+tree-rodinia-3.7.sm_30.ptx:30 skipping new declaration
GPGPU-Sim PTX: Warning %r12 was declared previous at b+tree-rodinia-3.7.sm_30.ptx:30 skipping new declaration
GPGPU-Sim PTX: Warning %r13 was declared previous at b+tree-rodinia-3.7.sm_30.ptx:30 skipping new declaration
GPGPU-Sim PTX: Warning %r14 was declared previous at b+tree-rodinia-3.7.sm_30.ptx:30 skipping new declaration
GPGPU-Sim PTX: Warning %r15 was declared previous at b+tree-rodinia-3.7.sm_30.ptx:30 skipping new declaration
GPGPU-Sim PTX: Warning %r16 was declared previous at b+tree-rodinia-3.7.sm_30.ptx:30 skipping new declaration
GPGPU-Sim PTX: Warning %r17 was declared previous at b+tree-rodinia-3.7.sm_30.ptx:30 skipping new declaration
GPGPU-Sim PTX: Warning %r18 was declared previous at b+tree-rodinia-3.7.sm_30.ptx:30 skipping new declaration
GPGPU-Sim PTX: Warning %r19 was declared previous at b+tree-rodinia-3.7.sm_30.ptx:30 skipping new declaration
GPGPU-Sim PTX: Warning %r20 was declared previous at b+tree-rodinia-3.7.sm_30.ptx:30 skipping new declaration
GPGPU-Sim PTX: Warning %r21 was declared previous at b+tree-rodinia-3.7.sm_30.ptx:30 skipping new declaration
GPGPU-Sim PTX: Warning %r22 was declared previous at b+tree-rodinia-3.7.sm_30.ptx:30 skipping new declaration
GPGPU-Sim PTX: Warning %r23 was declared previous at b+tree-rodinia-3.7.sm_30.ptx:30 skipping new declaration
GPGPU-Sim PTX: Warning %r24 was declared previous at b+tree-rodinia-3.7.sm_30.ptx:30 skipping new declaration
GPGPU-Sim PTX: Warning %r25 was declared previous at b+tree-rodinia-3.7.sm_30.ptx:30 skipping new declaration
GPGPU-Sim PTX: Warning %r26 was declared previous at b+tree-rodinia-3.7.sm_30.ptx:30 skipping new declaration
GPGPU-Sim PTX: Warning %r27 was declared previous at b+tree-rodinia-3.7.sm_30.ptx:30 skipping new declaration
GPGPU-Sim PTX: Warning %r28 was declared previous at b+tree-rodinia-3.7.sm_30.ptx:30 skipping new declaration
GPGPU-Sim PTX: Warning %r29 was declared previous at b+tree-rodinia-3.7.sm_30.ptx:30 skipping new declaration
GPGPU-Sim PTX: Warning %r30 was declared previous at b+tree-rodinia-3.7.sm_30.ptx:30 skipping new declaration
GPGPU-Sim PTX: Warning %r31 was declared previous at b+tree-rodinia-3.7.sm_30.ptx:30 skipping new declaration
GPGPU-Sim PTX: Warning %r32 was declared previous at b+tree-rodinia-3.7.sm_30.ptx:30 skipping new declaration
GPGPU-Sim PTX: Warning %r33 was declared previous at b+tree-rodinia-3.7.sm_30.ptx:30 skipping new declaration
GPGPU-Sim PTX: Warning %r34 was declared previous at b+tree-rodinia-3.7.sm_30.ptx:30 skipping new declaration
GPGPU-Sim PTX: Warning %r35 was declared previous at b+tree-rodinia-3.7.sm_30.ptx:30 skipping new declaration
GPGPU-Sim PTX: Warning %r36 was declared previous at b+tree-rodinia-3.7.sm_30.ptx:30 skipping new declaration
GPGPU-Sim PTX: Warning %r37 was declared previous at b+tree-rodinia-3.7.sm_30.ptx:30 skipping new declaration
GPGPU-Sim PTX: Warning %r38 was declared previous at b+tree-rodinia-3.7.sm_30.ptx:30 skipping new declaration
GPGPU-Sim PTX: Warning %r39 was declared previous at b+tree-rodinia-3.7.sm_30.ptx:30 skipping new declaration
GPGPU-Sim PTX: Warning %r40 was declared previous at b+tree-rodinia-3.7.sm_30.ptx:30 skipping new declaration
GPGPU-Sim PTX: Warning %r41 was declared previous at b+tree-rodinia-3.7.sm_30.ptx:30 skipping new declaration
GPGPU-Sim PTX: Warning %r42 was declared previous at b+tree-rodinia-3.7.sm_30.ptx:30 skipping new declaration
GPGPU-Sim PTX: Warning %r43 was declared previous at b+tree-rodinia-3.7.sm_30.ptx:30 skipping new declaration
GPGPU-Sim PTX: Warning %r44 was declared previous at b+tree-rodinia-3.7.sm_30.ptx:30 skipping new declaration
GPGPU-Sim PTX: Warning %r45 was declared previous at b+tree-rodinia-3.7.sm_30.ptx:30 skipping new declaration
GPGPU-Sim PTX: Warning %r46 was declared previous at b+tree-rodinia-3.7.sm_30.ptx:30 skipping new declaration
GPGPU-Sim PTX: Warning %r47 was declared previous at b+tree-rodinia-3.7.sm_30.ptx:30 skipping new declaration
GPGPU-Sim PTX: Warning %r48 was declared previous at b+tree-rodinia-3.7.sm_30.ptx:30 skipping new declaration
GPGPU-Sim PTX: Warning %r49 was declared previous at b+tree-rodinia-3.7.sm_30.ptx:30 skipping new declaration
GPGPU-Sim PTX: Warning %r50 was declared previous at b+tree-rodinia-3.7.sm_30.ptx:30 skipping new declaration
GPGPU-Sim PTX: Warning %r51 was declared previous at b+tree-rodinia-3.7.sm_30.ptx:30 skipping new declaration
GPGPU-Sim PTX: Warning %r52 was declared previous at b+tree-rodinia-3.7.sm_30.ptx:30 skipping new declaration
GPGPU-Sim PTX: Warning %r53 was declared previous at b+tree-rodinia-3.7.sm_30.ptx:30 skipping new declaration
GPGPU-Sim PTX: Warning %r54 was declared previous at b+tree-rodinia-3.7.sm_30.ptx:30 skipping new declaration
GPGPU-Sim PTX: Warning %r55 was declared previous at b+tree-rodinia-3.7.sm_30.ptx:30 skipping new declaration
GPGPU-Sim PTX: Warning %r56 was declared previous at b+tree-rodinia-3.7.sm_30.ptx:30 skipping new declaration
GPGPU-Sim PTX: Warning %r57 was declared previous at b+tree-rodinia-3.7.sm_30.ptx:30 skipping new declaration
GPGPU-Sim PTX: Warning %r58 was declared previous at b+tree-rodinia-3.7.sm_30.ptx:30 skipping new declaration
GPGPU-Sim PTX: Warning %r59 was declared previous at b+tree-rodinia-3.7.sm_30.ptx:30 skipping new declaration
GPGPU-Sim PTX: Warning %r60 was declared previous at b+tree-rodinia-3.7.sm_30.ptx:30 skipping new declaration
GPGPU-Sim PTX: Warning %r61 was declared previous at b+tree-rodinia-3.7.sm_30.ptx:30 skipping new declaration
GPGPU-Sim PTX: Warning %r62 was declared previous at b+tree-rodinia-3.7.sm_30.ptx:30 skipping new declaration
GPGPU-Sim PTX: Warning %r63 was declared previous at b+tree-rodinia-3.7.sm_30.ptx:30 skipping new declaration
GPGPU-Sim PTX: Warning %r64 was declared previous at b+tree-rodinia-3.7.sm_30.ptx:30 skipping new declaration
GPGPU-Sim PTX: Warning %r65 was declared previous at b+tree-rodinia-3.7.sm_30.ptx:30 skipping new declaration
GPGPU-Sim PTX: Warning %r66 was declared previous at b+tree-rodinia-3.7.sm_30.ptx:30 skipping new declaration
GPGPU-Sim PTX: Warning %r67 was declared previous at b+tree-rodinia-3.7.sm_30.ptx:30 skipping new declaration
GPGPU-Sim PTX: Warning %r68 was declared previous at b+tree-rodinia-3.7.sm_30.ptx:30 skipping new declaration
GPGPU-Sim PTX: Warning %r69 was declared previous at b+tree-rodinia-3.7.sm_30.ptx:30 skipping new declaration
GPGPU-Sim PTX: Warning %r70 was declared previous at b+tree-rodinia-3.7.sm_30.ptx:30 skipping new declaration
GPGPU-Sim PTX: Warning %r71 was declared previous at b+tree-rodinia-3.7.sm_30.ptx:30 skipping new declaration
GPGPU-Sim PTX: Warning %r72 was declared previous at b+tree-rodinia-3.7.sm_30.ptx:30 skipping new declaration
GPGPU-Sim PTX: Warning %r73 was declared previous at b+tree-rodinia-3.7.sm_30.ptx:30 skipping new declaration
GPGPU-Sim PTX: Warning %r74 was declared previous at b+tree-rodinia-3.7.sm_30.ptx:30 skipping new declaration
GPGPU-Sim PTX: Warning %r75 was declared previous at b+tree-rodinia-3.7.sm_30.ptx:30 skipping new declaration
GPGPU-Sim PTX: Warning %r76 was declared previous at b+tree-rodinia-3.7.sm_30.ptx:30 skipping new declaration
GPGPU-Sim PTX: Warning %r77 was declared previous at b+tree-rodinia-3.7.sm_30.ptx:30 skipping new declaration
GPGPU-Sim PTX: Warning %r78 was declared previous at b+tree-rodinia-3.7.sm_30.ptx:30 skipping new declaration
GPGPU-Sim PTX: Warning %r79 was declared previous at b+tree-rodinia-3.7.sm_30.ptx:30 skipping new declaration
GPGPU-Sim PTX: Warning %r80 was declared previous at b+tree-rodinia-3.7.sm_30.ptx:30 skipping new declaration
GPGPU-Sim PTX: Warning %r81 was declared previous at b+tree-rodinia-3.7.sm_30.ptx:30 skipping new declaration
GPGPU-Sim PTX: Warning %r82 was declared previous at b+tree-rodinia-3.7.sm_30.ptx:30 skipping new declaration
GPGPU-Sim PTX: Warning %r83 was declared previous at b+tree-rodinia-3.7.sm_30.ptx:30 skipping new declaration
GPGPU-Sim PTX: Warning %r84 was declared previous at b+tree-rodinia-3.7.sm_30.ptx:30 skipping new declaration
GPGPU-Sim PTX: Warning %r85 was declared previous at b+tree-rodinia-3.7.sm_30.ptx:30 skipping new declaration
GPGPU-Sim PTX: Warning %r86 was declared previous at b+tree-rodinia-3.7.sm_30.ptx:30 skipping new declaration
GPGPU-Sim PTX: Warning %r87 was declared previous at b+tree-rodinia-3.7.sm_30.ptx:30 skipping new declaration
GPGPU-Sim PTX: Warning %r88 was declared previous at b+tree-rodinia-3.7.sm_30.ptx:30 skipping new declaration
GPGPU-Sim PTX: Warning %r89 was declared previous at b+tree-rodinia-3.7.sm_30.ptx:30 skipping new declaration
[...]
GrpLevelPara = 1.399347 

BW Util details:
bwutil = 0.125018 
total_CMD = 105129 
util_bw = 13143 
Wasted_Col = 23466 
Wasted_Row = 11629 
Idle = 56891 

BW Util Bottlenecks: 
RCDc_limit = 23383 
RCDWRc_limit = 231 
WTRc_limit = 242 
RTWc_limit = 810 
CCDLc_limit = 8236 
rwq = 0 
CCDLc_limit_alone = 8144 
WTRc_limit_alone = 213 
RTWc_limit_alone = 747 

Commands details: 
total_CMD = 105129 
n_nop = 87967 
Read = 12971 
Write = 0 
L2_Alloc = 0 
L2_WB = 172 
n_act = 2585 
n_pre = 2569 
n_ref = 0 
n_req = 13014 
total_req = 13143 

Dual Bus Interface Util: 
issued_total_row = 5154 
issued_total_col = 13143 
Row_Bus_Util =  0.049025 
CoL_Bus_Util = 0.125018 
Either_Row_CoL_Bus_Util = 0.163247 
Issued_on_Two_Bus_Simul_Util = 0.010796 
issued_two_Eff = 0.066134 
queue_avg = 2.601119 


dram_util_bins: 0 0 0 0 0 0 0 0 0 0
dram_eff_bins: 0 0 0 0 0 0 0 0 0 0
mrqq: max=44 avg=2.60112
Memory Partition 29: 
Cache L2_bank_058:
MSHR contents

Cache L2_bank_059:
MSHR contents

In Dram Latency Queue (total = 0): 
DRAM[29]: 16 bks, busW=16 BL=2 CL=12, tRRD=3 tCCD=1, tRCD=12 tRAS=28 tRP=12 tRC=40
n_cmd=105129 n_nop=88200 n_act=2579 n_pre=2563 n_ref_event=0 n_req=12774 n_rd=12728 n_rd_L2_A=0 n_write=0 n_wr_bk=184 bw_util=0.1228
n_activity=59793 dram_eff=0.2159
bk0: 801a 100113i bk1: 820a 100050i bk2: 839a 99733i bk3: 899a 98772i bk4: 886a 99707i bk5: 866a 100261i bk6: 873a 99911i bk7: 851a 99971i bk8: 766a 99848i bk9: 735a 100146i bk10: 797a 100268i bk11: 764a 99865i bk12: 715a 100390i bk13: 682a 100651i bk14: 724a 100417i bk15: 710a 100343i 

------------------------------------------------------------------------

Row_Buffer_Locality = 0.798106
Row_Buffer_Locality_read = 0.800440
Row_Buffer_Locality_write = 0.152174
Bank_Level_Parallism = 1.963555
Bank_Level_Parallism_Col = 1.571190
Bank_Level_Parallism_Ready = 1.195012
write_to_read_ratio_blp_rw_average = 0.026982
GrpLevelPara = 1.392125 

BW Util details:
bwutil = 0.122821 
total_CMD = 105129 
util_bw = 12912 
Wasted_Col = 23504 
Wasted_Row = 11656 
Idle = 57057 

BW Util Bottlenecks: 
RCDc_limit = 23392 
RCDWRc_limit = 288 
WTRc_limit = 312 
RTWc_limit = 777 
CCDLc_limit = 8051 
rwq = 0 
CCDLc_limit_alone = 8000 
WTRc_limit_alone = 296 
RTWc_limit_alone = 742 

Commands details: 
total_CMD = 105129 
n_nop = 88200 
Read = 12728 
Write = 0 
L2_Alloc = 0 
L2_WB = 184 
n_act = 2579 
n_pre = 2563 
n_ref = 0 
n_req = 12774 
total_req = 12912 

Dual Bus Interface Util: 
issued_total_row = 5142 
issued_total_col = 12912 
Row_Bus_Util =  0.048911 
CoL_Bus_Util = 0.122821 
Either_Row_CoL_Bus_Util = 0.161031 
Issued_on_Two_Bus_Simul_Util = 0.010701 
issued_two_Eff = 0.066454 
queue_avg = 2.578737 


dram_util_bins: 0 0 0 0 0 0 0 0 0 0
dram_eff_bins: 0 0 0 0 0 0 0 0 0 0
mrqq: max=45 avg=2.57874
Memory Partition 30: 
Cache L2_bank_060:
MSHR contents

Cache L2_bank_061:
MSHR contents

In Dram Latency Queue (total = 0): 
DRAM[30]: 16 bks, busW=16 BL=2 CL=12, tRRD=3 tCCD=1, tRCD=12 tRAS=28 tRP=12 tRC=40
n_cmd=105129 n_nop=88793 n_act=2509 n_pre=2493 n_ref_event=0 n_req=12248 n_rd=12211 n_rd_L2_A=0 n_write=0 n_wr_bk=148 bw_util=0.1176
n_activity=60211 dram_eff=0.2053
bk0: 788a 100301i bk1: 796a 100558i bk2: 819a 99551i bk3: 867a 99503i bk4: 826a 99744i bk5: 760a 100096i bk6: 837a 100025i bk7: 844a 100551i bk8: 796a 100058i bk9: 745a 99965i bk10: 770a 100273i bk11: 711a 100672i bk12: 641a 100785i bk13: 680a 100463i bk14: 671a 100571i bk15: 660a 100809i 

------------------------------------------------------------------------

Row_Buffer_Locality = 0.795150
Row_Buffer_Locality_read = 0.797232
Row_Buffer_Locality_write = 0.108108
Bank_Level_Parallism = 1.897890
Bank_Level_Parallism_Col = 1.539078
Bank_Level_Parallism_Ready = 1.199126
write_to_read_ratio_blp_rw_average = 0.027157
GrpLevelPara = 1.377839 

BW Util details:
bwutil = 0.117560 
total_CMD = 105129 
util_bw = 12359 
Wasted_Col = 23477 
Wasted_Row = 11789 
Idle = 57504 

BW Util Bottlenecks: 
RCDc_limit = 23281 
RCDWRc_limit = 251 
WTRc_limit = 215 
RTWc_limit = 768 
CCDLc_limit = 7742 
rwq = 0 
CCDLc_limit_alone = 7685 
WTRc_limit_alone = 194 
RTWc_limit_alone = 732 

Commands details: 
total_CMD = 105129 
n_nop = 88793 
Read = 12211 
Write = 0 
L2_Alloc = 0 
L2_WB = 148 
n_act = 2509 
n_pre = 2493 
n_ref = 0 
n_req = 12248 
total_req = 12359 

Dual Bus Interface Util: 
issued_total_row = 5002 
issued_total_col = 12359 
Row_Bus_Util =  0.047580 
CoL_Bus_Util = 0.117560 
Either_Row_CoL_Bus_Util = 0.155390 
Issued_on_Two_Bus_Simul_Util = 0.009750 
issued_two_Eff = 0.062745 
queue_avg = 2.414852 


dram_util_bins: 0 0 0 0 0 0 0 0 0 0
dram_eff_bins: 0 0 0 0 0 0 0 0 0 0
mrqq: max=56 avg=2.41485
Memory Partition 31: 
Cache L2_bank_062:
MSHR contents

Cache L2_bank_063:
MSHR contents

In Dram Latency Queue (total = 0): 
DRAM[31]: 16 bks, busW=16 BL=2 CL=12, tRRD=3 tCCD=1, tRCD=12 tRAS=28 tRP=12 tRC=40
n_cmd=105129 n_nop=88476 n_act=2577 n_pre=2561 n_ref_event=0 n_req=12476 n_rd=12437 n_rd_L2_A=0 n_write=0 n_wr_bk=156 bw_util=0.1198
n_activity=59930 dram_eff=0.2101
bk0: 810a 100089i bk1: 787a 100375i bk2: 809a 99936i bk3: 829a 99941i bk4: 826a 100057i bk5: 797a 100599i bk6: 798a 100392i bk7: 890a 99835i bk8: 771a 99794i bk9: 739a 100109i bk10: 817a 99845i bk11: 772a 100285i bk12: 645a 100525i bk13: 751a 99793i bk14: 689a 100252i bk15: 707a 100254i 

------------------------------------------------------------------------

Row_Buffer_Locality = 0.793443
Row_Buffer_Locality_read = 0.795288
Row_Buffer_Locality_write = 0.205128
Bank_Level_Parallism = 1.937004
Bank_Level_Parallism_Col = 1.566702
Bank_Level_Parallism_Ready = 1.201858
write_to_read_ratio_blp_rw_average = 0.025005
GrpLevelPara = 1.393986 

BW Util details:
bwutil = 0.119786 
total_CMD = 105129 
util_bw = 12593 
Wasted_Col = 23391 
Wasted_Row = 11749 
Idle = 57396 

BW Util Bottlenecks: 
RCDc_limit = 23544 
RCDWRc_limit = 233 
WTRc_limit = 246 
RTWc_limit = 649 
CCDLc_limit = 7675 
rwq = 0 
CCDLc_limit_alone = 7617 
WTRc_limit_alone = 224 
RTWc_limit_alone = 613 

Commands details: 
total_CMD = 105129 
n_nop = 88476 
Read = 12437 
Write = 0 
L2_Alloc = 0 
L2_WB = 156 
n_act = 2577 
n_pre = 2561 
n_ref = 0 
n_req = 12476 
total_req = 12593 

Dual Bus Interface Util: 
issued_total_row = 5138 
issued_total_col = 12593 
Row_Bus_Util =  0.048873 
CoL_Bus_Util = 0.119786 
Either_Row_CoL_Bus_Util = 0.158405 
Issued_on_Two_Bus_Simul_Util = 0.010254 
issued_two_Eff = 0.064733 
queue_avg = 2.460634 


dram_util_bins: 0 0 0 0 0 0 0 0 0 0
dram_eff_bins: 0 0 0 0 0 0 0 0 0 0
mrqq: max=53 avg=2.46063

========= L2 cache stats =========
L2_cache_bank[0]: Access = 22208, Miss = 6371, Miss_rate = 0.287, Pending_hits = 357, Reservation_fails = 979
L2_cache_bank[1]: Access = 22690, Miss = 6213, Miss_rate = 0.274, Pending_hits = 324, Reservation_fails = 1151
L2_cache_bank[2]: Access = 22024, Miss = 6324, Miss_rate = 0.287, Pending_hits = 333, Reservation_fails = 1338
L2_cache_bank[3]: Access = 22598, Miss = 6467, Miss_rate = 0.286, Pending_hits = 281, Reservation_fails = 623
L2_cache_bank[4]: Access = 24044, Miss = 6547, Miss_rate = 0.272, Pending_hits = 313, Reservation_fails = 905
L2_cache_bank[5]: Access = 24103, Miss = 6730, Miss_rate = 0.279, Pending_hits = 314, Reservation_fails = 406
L2_cache_bank[6]: Access = 23970, Miss = 6438, Miss_rate = 0.269, Pending_hits = 286, Reservation_fails = 1137
L2_cache_bank[7]: Access = 24907, Miss = 6794, Miss_rate = 0.273, Pending_hits = 322, Reservation_fails = 206
L2_cache_bank[8]: Access = 21100, Miss = 6669, Miss_rate = 0.316, Pending_hits = 273, Reservation_fails = 572
L2_cache_bank[9]: Access = 20428, Miss = 6775, Miss_rate = 0.332, Pending_hits = 274, Reservation_fails = 1145
L2_cache_bank[10]: Access = 21007, Miss = 6567, Miss_rate = 0.313, Pending_hits = 337, Reservation_fails = 1406
L2_cache_bank[11]: Access = 20598, Miss = 6731, Miss_rate = 0.327, Pending_hits = 259, Reservation_fails = 1277
L2_cache_bank[12]: Access = 19474, Miss = 6391, Miss_rate = 0.328, Pending_hits = 326, Reservation_fails = 1191
L2_cache_bank[13]: Access = 19965, Miss = 6657, Miss_rate = 0.333, Pending_hits = 264, Reservation_fails = 889
L2_cache_bank[14]: Access = 19250, Miss = 6540, Miss_rate = 0.340, Pending_hits = 364, Reservation_fails = 1243
L2_cache_bank[15]: Access = 19541, Miss = 6775, Miss_rate = 0.347, Pending_hits = 295, Reservation_fails = 743
L2_cache_bank[16]: Access = 22220, Miss = 6209, Miss_rate = 0.279, Pending_hits = 386, Reservation_fails = 1627
L2_cache_bank[17]: Access = 23320, Miss = 6433, Miss_rate = 0.276, Pending_hits = 307, Reservation_fails = 434
L2_cache_bank[18]: Access = 22178, Miss = 6346, Miss_rate = 0.286, Pending_hits = 365, Reservation_fails = 1916
L2_cache_bank[19]: Access = 23084, Miss = 6588, Miss_rate = 0.285, Pending_hits = 322, Reservation_fails = 1333
L2_cache_bank[20]: Access = 24059, Miss = 6457, Miss_rate = 0.268, Pending_hits = 370, Reservation_fails = 1518
L2_cache_bank[21]: Access = 23976, Miss = 6579, Miss_rate = 0.274, Pending_hits = 351, Reservation_fails = 610
L2_cache_bank[22]: Access = 24199, Miss = 6453, Miss_rate = 0.267, Pending_hits = 399, Reservation_fails = 2472
L2_cache_bank[23]: Access = 24575, Miss = 6619, Miss_rate = 0.269, Pending_hits = 324, Reservation_fails = 838
L2_cache_bank[24]: Access = 20688, Miss = 6561, Miss_rate = 0.317, Pending_hits = 405, Reservation_fails = 1308
L2_cache_bank[25]: Access = 20442, Miss = 6786, Miss_rate = 0.332, Pending_hits = 384, Reservation_fails = 2443
L2_cache_bank[26]: Access = 20624, Miss = 6505, Miss_rate = 0.315, Pending_hits = 403, Reservation_fails = 1026
L2_cache_bank[27]: Access = 20654, Miss = 6716, Miss_rate = 0.325, Pending_hits = 396, Reservation_fails = 1600
L2_cache_bank[28]: Access = 19943, Miss = 6284, Miss_rate = 0.315, Pending_hits = 365, Reservation_fails = 1412
L2_cache_bank[29]: Access = 20244, Miss = 6530, Miss_rate = 0.323, Pending_hits = 284, Reservation_fails = 1401
L2_cache_bank[30]: Access = 19586, Miss = 6511, Miss_rate = 0.332, Pending_hits = 343, Reservation_fails = 1270
L2_cache_bank[31]: Access = 19421, Miss = 6619, Miss_rate = 0.341, Pending_hits = 344, Reservation_fails = 1501
L2_cache_bank[32]: Access = 21717, Miss = 6268, Miss_rate = 0.289, Pending_hits = 333, Reservation_fails = 1151
L2_cache_bank[33]: Access = 22129, Miss = 5989, Miss_rate = 0.271, Pending_hits = 304, Reservation_fails = 302
L2_cache_bank[34]: Access = 21758, Miss = 6222, Miss_rate = 0.286, Pending_hits = 316, Reservation_fails = 1641
L2_cache_bank[35]: Access = 22081, Miss = 6154, Miss_rate = 0.279, Pending_hits = 320, Reservation_fails = 282
L2_cache_bank[36]: Access = 23652, Miss = 6516, Miss_rate = 0.275, Pending_hits = 348, Reservation_fails = 1659
L2_cache_bank[37]: Access = 22811, Miss = 6524, Miss_rate = 0.286, Pending_hits = 299, Reservation_fails = 279
L2_cache_bank[38]: Access = 23264, Miss = 6508, Miss_rate = 0.280, Pending_hits = 346, Reservation_fails = 1609
L2_cache_bank[39]: Access = 23055, Miss = 6507, Miss_rate = 0.282, Pending_hits = 283, Reservation_fails = 90
L2_cache_bank[40]: Access = 20492, Miss = 6541, Miss_rate = 0.319, Pending_hits = 286, Reservation_fails = 1090
L2_cache_bank[41]: Access = 19735, Miss = 6605, Miss_rate = 0.335, Pending_hits = 223, Reservation_fails = 485
L2_cache_bank[42]: Access = 20148, Miss = 6321, Miss_rate = 0.314, Pending_hits = 272, Reservation_fails = 952
L2_cache_bank[43]: Access = 19839, Miss = 6700, Miss_rate = 0.338, Pending_hits = 249, Reservation_fails = 719
L2_cache_bank[44]: Access = 18790, Miss = 6533, Miss_rate = 0.348, Pending_hits = 271, Reservation_fails = 973
L2_cache_bank[45]: Access = 19760, Miss = 6637, Miss_rate = 0.336, Pending_hits = 290, Reservation_fails = 233
L2_cache_bank[46]: Access = 19273, Miss = 6452, Miss_rate = 0.335, Pending_hits = 293, Reservation_fails = 1349
L2_cache_bank[47]: Access = 19109, Miss = 6550, Miss_rate = 0.343, Pending_hits = 259, Reservation_fails = 274
L2_cache_bank[48]: Access = 22257, Miss = 6081, Miss_rate = 0.273, Pending_hits = 285, Reservation_fails = 712
L2_cache_bank[49]: Access = 23683, Miss = 6448, Miss_rate = 0.272, Pending_hits = 333, Reservation_fails = 913
L2_cache_bank[50]: Access = 21780, Miss = 6107, Miss_rate = 0.280, Pending_hits = 258, Reservation_fails = 626
L2_cache_bank[51]: Access = 22757, Miss = 6490, Miss_rate = 0.285, Pending_hits = 338, Reservation_fails = 243
L2_cache_bank[52]: Access = 23678, Miss = 6204, Miss_rate = 0.262, Pending_hits = 263, Reservation_fails = 813
L2_cache_bank[53]: Access = 24178, Miss = 6745, Miss_rate = 0.279, Pending_hits = 336, Reservation_fails = 337
L2_cache_bank[54]: Access = 23693, Miss = 6065, Miss_rate = 0.256, Pending_hits = 223, Reservation_fails = 467
L2_cache_bank[55]: Access = 24133, Miss = 6657, Miss_rate = 0.276, Pending_hits = 377, Reservation_fails = 586
L2_cache_bank[56]: Access = 19925, Miss = 6468, Miss_rate = 0.325, Pending_hits = 218, Reservation_fails = 834
L2_cache_bank[57]: Access = 20543, Miss = 6886, Miss_rate = 0.335, Pending_hits = 310, Reservation_fails = 946
L2_cache_bank[58]: Access = 20445, Miss = 6530, Miss_rate = 0.319, Pending_hits = 288, Reservation_fails = 799
L2_cache_bank[59]: Access = 19726, Miss = 6593, Miss_rate = 0.334, Pending_hits = 292, Reservation_fails = 1331
L2_cache_bank[60]: Access = 19306, Miss = 6307, Miss_rate = 0.327, Pending_hits = 253, Reservation_fails = 1211
L2_cache_bank[61]: Access = 19184, Miss = 6178, Miss_rate = 0.322, Pending_hits = 268, Reservation_fails = 1177
L2_cache_bank[62]: Access = 18992, Miss = 6487, Miss_rate = 0.342, Pending_hits = 269, Reservation_fails = 960
L2_cache_bank[63]: Access = 19099, Miss = 6256, Miss_rate = 0.328, Pending_hits = 255, Reservation_fails = 1341
L2_total_cache_accesses = 1378112
L2_total_cache_misses = 414714
L2_total_cache_miss_rate = 0.3009
L2_total_cache_pending_hits = 19928
L2_total_cache_reservation_fails = 64304
L2_total_cache_breakdown:
	L2_cache_stats_breakdown[GLOBAL_ACC_R][HIT] = 846485
	L2_cache_stats_breakdown[GLOBAL_ACC_R][HIT_RESERVED] = 19748
	L2_cache_stats_breakdown[GLOBAL_ACC_R][MISS] = 126214
	L2_cache_stats_breakdown[GLOBAL_ACC_R][RESERVATION_FAIL] = 64304
	L2_cache_stats_breakdown[GLOBAL_ACC_R][SECTOR_MISS] = 275665
	L2_cache_stats_breakdown[GLOBAL_ACC_R][MSHR_HIT] = 19748
	L2_cache_stats_breakdown[LOCAL_ACC_R][HIT] = 0
	L2_cache_stats_breakdown[LOCAL_ACC_R][HIT_RESERVED] = 0
	L2_cache_stats_breakdown[LOCAL_ACC_R][MISS] = 0
	L2_cache_stats_breakdown[LOCAL_ACC_R][RESERVATION_FAIL] = 0
	L2_cache_stats_breakdown[LOCAL_ACC_R][SECTOR_MISS] = 0
	L2_cache_stats_breakdown[LOCAL_ACC_R][MSHR_HIT] = 0
	L2_cache_stats_breakdown[CONST_ACC_R][HIT] = 0
	L2_cache_stats_breakdown[CONST_ACC_R][HIT_RESERVED] = 0
	L2_cache_stats_breakdown[CONST_ACC_R][MISS] = 0
	L2_cache_stats_breakdown[CONST_ACC_R][RESERVATION_FAIL] = 0
	L2_cache_stats_breakdown[CONST_ACC_R][SECTOR_MISS] = 0
	L2_cache_stats_breakdown[CONST_ACC_R][MSHR_HIT] = 0
	L2_cache_stats_breakdown[TEXTURE_ACC_R][HIT] = 0
	L2_cache_stats_breakdown[TEXTURE_ACC_R][HIT_RESERVED] = 0
	L2_cache_stats_breakdown[TEXTURE_ACC_R][MISS] = 0
	L2_cache_stats_breakdown[TEXTURE_ACC_R][RESERVATION_FAIL] = 0
	L2_cache_stats_breakdown[TEXTURE_ACC_R][SECTOR_MISS] = 0
	L2_cache_stats_breakdown[TEXTURE_ACC_R][MSHR_HIT] = 0
	L2_cache_stats_breakdown[GLOBAL_ACC_W][HIT] = 96985
	L2_cache_stats_breakdown[GLOBAL_ACC_W][HIT_RESERVED] = 180
	L2_cache_stats_breakdown[GLOBAL_ACC_W][MISS] = 557
	L2_cache_stats_breakdown[GLOBAL_ACC_W][RESERVATION_FAIL] = 0
	L2_cache_stats_breakdown[GLOBAL_ACC_W][SECTOR_MISS] = 12278
	L2_cache_stats_breakdown[GLOBAL_ACC_W][MSHR_HIT] = 0
	L2_cache_stats_breakdown[LOCAL_ACC_W][HIT] = 0
	L2_cache_stats_breakdown[LOCAL_ACC_W][HIT_RESERVED] = 0
	L2_cache_stats_breakdown[LOCAL_ACC_W][MISS] = 0
	L2_cache_stats_breakdown[LOCAL_ACC_W][RESERVATION_FAIL] = 0
	L2_cache_stats_breakdown[LOCAL_ACC_W][SECTOR_MISS] = 0
	L2_cache_stats_breakdown[LOCAL_ACC_W][MSHR_HIT] = 0
	L2_cache_stats_breakdown[L1_WRBK_ACC][HIT] = 0
	L2_cache_stats_breakdown[L1_WRBK_ACC][HIT_RESERVED] = 0
	L2_cache_stats_breakdown[L1_WRBK_ACC][MISS] = 0
	L2_cache_stats_breakdown[L1_WRBK_ACC][RESERVATION_FAIL] = 0
	L2_cache_stats_breakdown[L1_WRBK_ACC][SECTOR_MISS] = 0
	L2_cache_stats_breakdown[L1_WRBK_ACC][MSHR_HIT] = 0
	L2_cache_stats_breakdown[L2_WRBK_ACC][HIT] = 0
	L2_cache_stats_breakdown[L2_WRBK_ACC][HIT_RESERVED] = 0
	L2_cache_stats_breakdown[L2_WRBK_ACC][MISS] = 0
	L2_cache_stats_breakdown[L2_WRBK_ACC][RESERVATION_FAIL] = 0
	L2_cache_stats_breakdown[L2_WRBK_ACC][SECTOR_MISS] = 0
	L2_cache_stats_breakdown[L2_WRBK_ACC][MSHR_HIT] = 0
	L2_cache_stats_breakdown[INST_ACC_R][HIT] = 0
	L2_cache_stats_breakdown[INST_ACC_R][HIT_RESERVED] = 0
	L2_cache_stats_breakdown[INST_ACC_R][MISS] = 0
	L2_cache_stats_breakdown[INST_ACC_R][RESERVATION_FAIL] = 0
	L2_cache_stats_breakdown[INST_ACC_R][SECTOR_MISS] = 0
	L2_cache_stats_breakdown[INST_ACC_R][MSHR_HIT] = 0
	L2_cache_stats_breakdown[L1_WR_ALLOC_R][HIT] = 0
	L2_cache_stats_breakdown[L1_WR_ALLOC_R][HIT_RESERVED] = 0
	L2_cache_stats_breakdown[L1_WR_ALLOC_R][MISS] = 0
	L2_cache_stats_breakdown[L1_WR_ALLOC_R][RESERVATION_FAIL] = 0
	L2_cache_stats_breakdown[L1_WR_ALLOC_R][SECTOR_MISS] = 0
	L2_cache_stats_breakdown[L1_WR_ALLOC_R][MSHR_HIT] = 0
	L2_cache_stats_breakdown[L2_WR_ALLOC_R][HIT] = 0
	L2_cache_stats_breakdown[L2_WR_ALLOC_R][HIT_RESERVED] = 0
	L2_cache_stats_breakdown[L2_WR_ALLOC_R][MISS] = 0
	L2_cache_stats_breakdown[L2_WR_ALLOC_R][RESERVATION_FAIL] = 0
	L2_cache_stats_breakdown[L2_WR_ALLOC_R][SECTOR_MISS] = 0
	L2_cache_stats_breakdown[L2_WR_ALLOC_R][MSHR_HIT] = 0
	L2_cache_stats_breakdown[GLOBAL_ACC_R][TOTAL_ACCESS] = 1287860
	L2_cache_stats_breakdown[GLOBAL_ACC_W][TOTAL_ACCESS] = 110000
L2_total_cache_reservation_fail_breakdown:
	L2_cache_stats_fail_breakdown[GLOBAL_ACC_R][MSHR_MERGE_ENRTY_FAIL] = 64304
L2_cache_data_port_util = 0.105
L2_cache_fill_port_util = 0.045

icnt_total_pkts_mem_to_simt=1378112
icnt_total_pkts_simt_to_mem=1378112
LD_mem_lat_dist  0 0 0 0 0 0 0 0 0 0 0 0 0 0 0 0 0 0 0 0 0 0 0 0 0 0 0
ST_mem_lat_dist  0 0 0 0 0 0 0 0 0 0 0 0 0 0 0 0 0 0 0 0 0 0 0 0 0 0 0
----------------------------Interconnect-DETAILS--------------------------------
Req_Network_injected_packets_num = 1378112
Req_Network_cycles = 140008
Req_Network_injected_packets_per_cycle =       9.8431 
Req_Network_conflicts_per_cycle =       3.8522
Req_Network_conflicts_per_cycle_util =       4.3034
Req_Bank_Level_Parallism =      10.9960
Req_Network_in_buffer_full_per_cycle =       0.0000
Req_Network_in_buffer_avg_util =       1.1552
Req_Network_out_buffer_full_per_cycle =       0.0000
Req_Network_out_buffer_avg_util =       0.2891

Reply_Network_injected_packets_num = 1378112
Reply_Network_cycles = 140008
Reply_Network_injected_packets_per_cycle =        9.8431
Reply_Network_conflicts_per_cycle =        6.2024
Reply_Network_conflicts_per_cycle_util =       6.9307
Reply_Bank_Level_Parallism =      10.9989
Reply_Network_in_buffer_full_per_cycle =       0.0000
Reply_Network_in_buffer_avg_util =       0.7384
Reply_Network_out_buffer_full_per_cycle =       0.0000
Reply_Network_out_buffer_avg_util =       0.1230
----------------------------END-of-Interconnect-DETAILS-------------------------


gpgpu_simulation_time = 0 days, 0 hrs, 27 min, 35 sec (1655 sec)
gpgpu_simulation_rate = 230146 (inst/sec)
gpgpu_simulation_rate = 84 (cycle/sec)
gpgpu_silicon_slowdown = 13476190x
GPGPU-Sim: synchronize waiting for inactive GPU simulation
GPGPU-Sim API: Stream Manager State
GPGPU-Sim: detected inactive GPU simulation thread
Time spent in different stages of GPU_CUDA KERNEL:
 0.000036000001 s,  0.000004529199 % : GPU: SET DEVICE / DRIVER INIT
 0.000008000000 s,  0.000001006489 % : GPU MEM: ALO
 0.827899992466 s,  0.104158997536 % : GPU MEM: COPY IN
794.010986328125 s, 99.895385742188 % : GPU: KERNEL
 0.003507999936 s,  0.000441345299 % : GPU MEM: COPY OUT
 0.000001000000 s,  0.000000125811 % : GPU MEM: FRE
Total time:
794.842468261719 s
> > > > > > > > > > 
GPGPU-Sim: *** exit detected ***
