Skipping setup_environment - already set
doing: export -n PTX_SIM_USE_PTX_FILE
doing: export LD_LIBRARY_PATH=/home/min/a/devlinc/Documents/ECE60827/hardware-sim-assgn-2/hardware-simulation-assignment-2-texashodlr/util/job_launching/../../sim_run_9.1/gpgpu-sim-builds/gpgpu-sim_git-commit-686240852a0ff2e10f725c2cec20b7f8be93ea65_modified_17.0:/home/min/a/devlinc/Documents/ECE60827/hardware-sim-assgn-2/hardware-simulation-assignment-2-texashodlr/gpu-simulator/gpgpu-sim/lib/gcc-8.3.0/cuda-9010/release:/home/min/a/devlinc/Documents/ECE60827/hardware-sim-assgn-2/hardware-simulation-assignment-2-texashodlr/gpu-simulator/gpgpu-sim/lib/gcc-8.3.0/cuda-9010/release:/home/min/a/devlinc/Documents/ECE60827/hardware-sim-assgn-2/hardware-simulation-assignment-2-texashodlr/gpu-simulator/gpgpu-sim/lib/gcc-8.3.0/cuda-9010/release:/home/min/a/devlinc/Documents/ECE60827/hardware-sim-assgn-2/hardware-simulation-assignment-2-texashodlr/gpu-simulator/gpgpu-sim/lib/gcc-8.3.0/cuda-9010/release:/package/gcc/8.3.0/lib64:
doing: cd /home/min/a/devlinc/Documents/ECE60827/hardware-sim-assgn-2/hardware-simulation-assignment-2-texashodlr/util/job_launching/../../sim_run_9.1/nw-rodinia-3.1/2048_10/QV100-PTX-10M_INSN-8CLUSTER
doing: export OPENCL_CURRENT_TEST_PATH=/home/min/a/devlinc/Documents/ECE60827/hardware-sim-assgn-2/hardware-simulation-assignment-2-texashodlr/util/job_launching/../../sim_run_9.1/nw-rodinia-3.1/2048_10/QV100-PTX-10M_INSN-8CLUSTER
doing: export OPENCL_REMOTE_GPU_HOST=REPLACE_REMOTE_HOST
doing 
doing: export PATH=/home/min/a/devlinc/Documents/ECE60827/hardware-sim-assgn-2/hardware-simulation-assignment-2-texashodlr/gpu-simulator/gpgpu-sim/bin:/home/min/a/ee695paa/cuda/bin:/home/min/a/ee695paa/cuda/bin:/home/min/a/ee695paa/cuda/bin:/package/gcc/8.3.0/bin:/usr/lib64/qt-3.3/bin:/usr/lib64/ccache:/usr/local/bin:/usr/bin:/usr/local/sbin:/usr/sbin:.
doing export CUDA_LAUNCH_BLOCKING=1
doing:  /home/min/a/ee695paa/github/gpu-app-collection/src/..//bin/9.1/release/nw-rodinia-3.1 2048 10


        *** GPGPU-Sim Simulator Version 4.0.0  [build gpgpu-sim_git-commit-686240852a0ff2e10f725c2cec20b7f8be93ea65_modified_17.0] ***


GPGPU-Sim PTX: simulation mode 0 (can change with PTX_SIM_MODE_FUNC environment variable:
               1=functional simulation only, 0=detailed performance simulator)
GPGPU-Sim: Configuration options:

-save_embedded_ptx                      0 # saves ptx files embedded in binary as <n>.ptx
-keep                                   0 # keep intermediate files created by GPGPU-Sim when interfacing with external programs
-gpgpu_ptx_save_converted_ptxplus                    0 # Saved converted ptxplus to a file
-gpgpu_occupancy_sm_number                   70 # The SM number to pass to ptxas when getting register usage for computing GPU occupancy. This parameter is required in the config.
-ptx_opcode_latency_int      4,13,4,5,145,21 # Opcode latencies for integers <ADD,MAX,MUL,MAD,DIV,SHFL>Default 1,1,19,25,145,32
-ptx_opcode_latency_fp          4,13,4,5,39 # Opcode latencies for single precision floating points <ADD,MAX,MUL,MAD,DIV>Default 1,1,1,1,30
-ptx_opcode_latency_dp         8,19,8,8,330 # Opcode latencies for double precision floating points <ADD,MAX,MUL,MAD,DIV>Default 8,8,8,8,335
-ptx_opcode_latency_sfu                  100 # Opcode latencies for SFU instructionsDefault 8
-ptx_opcode_latency_tesnor                   64 # Opcode latencies for Tensor instructionsDefault 64
-ptx_opcode_initiation_int          2,2,2,2,8,4 # Opcode initiation intervals for integers <ADD,MAX,MUL,MAD,DIV,SHFL>Default 1,1,4,4,32,4
-ptx_opcode_initiation_fp            2,2,2,2,4 # Opcode initiation intervals for single precision floating points <ADD,MAX,MUL,MAD,DIV>Default 1,1,1,1,5
-ptx_opcode_initiation_dp          4,4,4,4,130 # Opcode initiation intervals for double precision floating points <ADD,MAX,MUL,MAD,DIV>Default 8,8,8,8,130
-ptx_opcode_initiation_sfu                    8 # Opcode initiation intervals for sfu instructionsDefault 8
-ptx_opcode_initiation_tensor                   64 # Opcode initiation intervals for tensor instructionsDefault 64
-cdp_latency         7200,8000,100,12000,1600 # CDP API latency <cudaStreamCreateWithFlags, cudaGetParameterBufferV2_init_perWarp, cudaGetParameterBufferV2_perKernel, cudaLaunchDeviceV2_init_perWarp, cudaLaunchDevicV2_perKernel>Default 7200,8000,100,12000,1600
-network_mode                           2 # Interconnection network mode
-inter_config_file                   mesh # Interconnection network config file
-icnt_in_buffer_limit                  512 # in_buffer_limit
-icnt_out_buffer_limit                  512 # out_buffer_limit
-icnt_subnets                           2 # subnets
-icnt_arbiter_algo                      1 # arbiter_algo
-icnt_verbose                           0 # inct_verbose
-icnt_grant_cycles                      1 # grant_cycles
-gpgpu_ptx_use_cuobjdump                    1 # Use cuobjdump to extract ptx and sass from binaries
-gpgpu_experimental_lib_support                    0 # Try to extract code from cuda libraries [Broken because of unknown cudaGetExportTable]
-checkpoint_option                      0 #  checkpointing flag (0 = no checkpoint)
-checkpoint_kernel                      1 #  checkpointing during execution of which kernel (1- 1st kernel)
-checkpoint_CTA                         0 #  checkpointing after # of CTA (< less than total CTA)
-resume_option                          0 #  resume flag (0 = no resume)
-resume_kernel                          0 #  Resume from which kernel (1= 1st kernel)
-resume_CTA                             0 #  resume from which CTA 
-checkpoint_CTA_t                       0 #  resume from which CTA 
-checkpoint_insn_Y                      0 #  resume from which CTA 
-gpgpu_ptx_convert_to_ptxplus                    0 # Convert SASS (native ISA) to ptxplus and run ptxplus
-gpgpu_ptx_force_max_capability                   70 # Force maximum compute capability
-gpgpu_ptx_inst_debug_to_file                    0 # Dump executed instructions' debug information to file
-gpgpu_ptx_inst_debug_file       inst_debug.txt # Executed instructions' debug output file
-gpgpu_ptx_inst_debug_thread_uid                    1 # Thread UID for executed instructions' debug output
-gpgpu_simd_model                       1 # 1 = post-dominator
-gpgpu_shader_core_pipeline              2048:32 # shader core pipeline config, i.e., {<nthread>:<warpsize>}
-gpgpu_tex_cache:l1  N:4:128:256,L:R:m:N:L,T:512:8,128:2 # per-shader L1 texture cache  (READ-ONLY) config  {<nsets>:<bsize>:<assoc>,<rep>:<wr>:<alloc>:<wr_alloc>,<mshr>:<N>:<merge>,<mq>:<rf>}
-gpgpu_const_cache:l1 N:128:64:8,L:R:f:N:L,S:2:64,4 # per-shader L1 constant memory cache  (READ-ONLY) config  {<nsets>:<bsize>:<assoc>,<rep>:<wr>:<alloc>:<wr_alloc>,<mshr>:<N>:<merge>,<mq>} 
-gpgpu_cache:il1     N:64:128:16,L:R:f:N:L,S:2:48,4 # shader L1 instruction cache config  {<nsets>:<bsize>:<assoc>,<rep>:<wr>:<alloc>:<wr_alloc>,<mshr>:<N>:<merge>,<mq>} 
-gpgpu_cache:dl1     S:1:128:256,L:L:m:N:L,A:512:8,16:0,32 # per-shader L1 data cache config  {<nsets>:<bsize>:<assoc>,<rep>:<wr>:<alloc>:<wr_alloc>,<mshr>:<N>:<merge>,<mq> | none}
-gpgpu_l1_banks                         4 # The number of L1 cache banks
-gpgpu_l1_banks_byte_interleaving                   32 # l1 banks byte interleaving granularity
-gpgpu_l1_banks_hashing_function                    0 # l1 banks hashing function
-gpgpu_l1_latency                      20 # L1 Hit Latency
-gpgpu_smem_latency                    20 # smem Latency
-gpgpu_cache:dl1PrefL1                 none # per-shader L1 data cache config  {<nsets>:<bsize>:<assoc>,<rep>:<wr>:<alloc>:<wr_alloc>,<mshr>:<N>:<merge>,<mq> | none}
-gpgpu_cache:dl1PrefShared                 none # per-shader L1 data cache config  {<nsets>:<bsize>:<assoc>,<rep>:<wr>:<alloc>:<wr_alloc>,<mshr>:<N>:<merge>,<mq> | none}
-gpgpu_gmem_skip_L1D                    0 # global memory access skip L1D cache (implements -Xptxas -dlcm=cg, default=no skip)
-gpgpu_perfect_mem                      0 # enable perfect memory mode (no cache miss)
-n_regfile_gating_group                    4 # group of lanes that should be read/written together)
-gpgpu_clock_gated_reg_file                    0 # enable clock gated reg file for power calculations
-gpgpu_clock_gated_lanes                    0 # enable clock gated lanes for power calculations
-gpgpu_shader_registers                65536 # Number of registers per shader core. Limits number of concurrent CTAs. (default 8192)
-gpgpu_registers_per_block                65536 # Maximum number of registers per CTA. (default 8192)
-gpgpu_ignore_resources_limitation                    0 # gpgpu_ignore_resources_limitation (default 0)
-gpgpu_shader_cta                      32 # Maximum number of concurrent CTAs in shader (default 8)
-gpgpu_num_cta_barriers                   16 # Maximum number of named barriers per CTA (default 16)
-gpgpu_n_clusters                      80 # number of processing clusters
-gpgpu_n_cores_per_cluster                    8 # number of simd cores per cluster
-gpgpu_n_cluster_ejection_buffer_size                   32 # number of packets in ejection buffer
-gpgpu_n_ldst_response_buffer_size                    2 # number of response packets in ld/st unit ejection buffer
-gpgpu_shmem_per_block                65536 # Size of shared memory per thread block or CTA (default 48kB)
-gpgpu_shmem_size                   98304 # Size of shared memory per shader core (default 16kB)
-gpgpu_adaptive_cache_config                    1 # adaptive_cache_config
-gpgpu_shmem_sizeDefault                98304 # Size of shared memory per shader core (default 16kB)
-gpgpu_shmem_size_PrefL1                16384 # Size of shared memory per shader core (default 16kB)
-gpgpu_shmem_size_PrefShared                16384 # Size of shared memory per shader core (default 16kB)
-gpgpu_shmem_num_banks                   32 # Number of banks in the shared memory in each shader core (default 16)
-gpgpu_shmem_limited_broadcast                    0 # Limit shared memory to do one broadcast per cycle (default on)
-gpgpu_shmem_warp_parts                    1 # Number of portions a warp is divided into for shared memory bank conflict check 
-gpgpu_mem_unit_ports                    1 # The number of memory transactions allowed per core cycle
-gpgpu_shmem_warp_parts                    1 # Number of portions a warp is divided into for shared memory bank conflict check 
-gpgpu_warpdistro_shader                   -1 # Specify which shader core to collect the warp size distribution from
-gpgpu_warp_issue_shader                    0 # Specify which shader core to collect the warp issue distribution from
-gpgpu_local_mem_map                    1 # Mapping from local memory space address to simulated GPU physical address space (default = enabled)
-gpgpu_num_reg_banks                   16 # Number of register banks (default = 8)
-gpgpu_reg_bank_use_warp_id                    0 # Use warp ID in mapping registers to banks (default = off)
-gpgpu_sub_core_model                    1 # Sub Core Volta/Pascal model (default = off)
-gpgpu_enable_specialized_operand_collector                    0 # enable_specialized_operand_collector
-gpgpu_operand_collector_num_units_sp                    4 # number of collector units (default = 4)
-gpgpu_operand_collector_num_units_dp                    0 # number of collector units (default = 0)
-gpgpu_operand_collector_num_units_sfu                    4 # number of collector units (default = 4)
-gpgpu_operand_collector_num_units_int                    0 # number of collector units (default = 0)
-gpgpu_operand_collector_num_units_tensor_core                    4 # number of collector units (default = 4)
-gpgpu_operand_collector_num_units_mem                    2 # number of collector units (default = 2)
-gpgpu_operand_collector_num_units_gen                    8 # number of collector units (default = 0)
-gpgpu_operand_collector_num_in_ports_sp                    1 # number of collector unit in ports (default = 1)
-gpgpu_operand_collector_num_in_ports_dp                    0 # number of collector unit in ports (default = 0)
-gpgpu_operand_collector_num_in_ports_sfu                    1 # number of collector unit in ports (default = 1)
-gpgpu_operand_collector_num_in_ports_int                    0 # number of collector unit in ports (default = 0)
-gpgpu_operand_collector_num_in_ports_tensor_core                    1 # number of collector unit in ports (default = 1)
-gpgpu_operand_collector_num_in_ports_mem                    1 # number of collector unit in ports (default = 1)
-gpgpu_operand_collector_num_in_ports_gen                    8 # number of collector unit in ports (default = 0)
-gpgpu_operand_collector_num_out_ports_sp                    1 # number of collector unit in ports (default = 1)
-gpgpu_operand_collector_num_out_ports_dp                    0 # number of collector unit in ports (default = 0)
-gpgpu_operand_collector_num_out_ports_sfu                    1 # number of collector unit in ports (default = 1)
-gpgpu_operand_collector_num_out_ports_int                    0 # number of collector unit in ports (default = 0)
-gpgpu_operand_collector_num_out_ports_tensor_core                    1 # number of collector unit in ports (default = 1)
-gpgpu_operand_collector_num_out_ports_mem                    1 # number of collector unit in ports (default = 1)
-gpgpu_operand_collector_num_out_ports_gen                    8 # number of collector unit in ports (default = 0)
-gpgpu_coalesce_arch                   60 # Coalescing arch (GT200 = 13, Fermi = 20)
-gpgpu_num_sched_per_core                    4 # Number of warp schedulers per core
-gpgpu_max_insn_issue_per_warp                    1 # Max number of instructions that can be issued per warp in one cycle by scheduler (either 1 or 2)
-gpgpu_dual_issue_diff_exec_units                    1 # should dual issue use two different execution unit resources (Default = 1)
-gpgpu_simt_core_sim_order                    1 # Select the simulation order of cores in a cluster (0=Fix, 1=Round-Robin)
-gpgpu_pipeline_widths 4,4,4,4,4,4,4,4,4,4,8,4,4 # Pipeline widths ID_OC_SP,ID_OC_DP,ID_OC_INT,ID_OC_SFU,ID_OC_MEM,OC_EX_SP,OC_EX_DP,OC_EX_INT,OC_EX_SFU,OC_EX_MEM,EX_WB,ID_OC_TENSOR_CORE,OC_EX_TENSOR_CORE
-gpgpu_tensor_core_avail                    1 # Tensor Core Available (default=0)
-gpgpu_num_sp_units                     4 # Number of SP units (default=1)
-gpgpu_num_dp_units                     4 # Number of DP units (default=0)
-gpgpu_num_int_units                    4 # Number of INT units (default=0)
-gpgpu_num_sfu_units                    4 # Number of SF units (default=1)
-gpgpu_num_tensor_core_units                    4 # Number of tensor_core units (default=1)
-gpgpu_num_mem_units                    1 # Number if ldst units (default=1) WARNING: not hooked up to anything
-gpgpu_scheduler                      gto # Scheduler configuration: < lrr | gto | two_level_active > If two_level_active:<num_active_warps>:<inner_prioritization>:<outer_prioritization>For complete list of prioritization values see shader.h enum scheduler_prioritization_typeDefault: gto
-gpgpu_concurrent_kernel_sm                    0 # Support concurrent kernels on a SM (default = disabled)
-gpgpu_perfect_inst_const_cache                    1 # perfect inst and const cache mode, so all inst and const hits in the cache(default = disabled)
-gpgpu_inst_fetch_throughput                    4 # the number of fetched intruction per warp each cycle
-gpgpu_reg_file_port_throughput                    2 # the number ports of the register file
-specialized_unit_1         0,4,4,4,4,BRA # specialized unit config {<enabled>,<num_units>:<latency>:<initiation>,<ID_OC_SPEC>:<OC_EX_SPEC>,<NAME>}
-specialized_unit_2         0,4,4,4,4,BRA # specialized unit config {<enabled>,<num_units>:<latency>:<initiation>,<ID_OC_SPEC>:<OC_EX_SPEC>,<NAME>}
-specialized_unit_3         0,4,4,4,4,BRA # specialized unit config {<enabled>,<num_units>:<latency>:<initiation>,<ID_OC_SPEC>:<OC_EX_SPEC>,<NAME>}
-specialized_unit_4         0,4,4,4,4,BRA # specialized unit config {<enabled>,<num_units>:<latency>:<initiation>,<ID_OC_SPEC>:<OC_EX_SPEC>,<NAME>}
-specialized_unit_5         0,4,4,4,4,BRA # specialized unit config {<enabled>,<num_units>:<latency>:<initiation>,<ID_OC_SPEC>:<OC_EX_SPEC>,<NAME>}
-specialized_unit_6         0,4,4,4,4,BRA # specialized unit config {<enabled>,<num_units>:<latency>:<initiation>,<ID_OC_SPEC>:<OC_EX_SPEC>,<NAME>}
-specialized_unit_7         0,4,4,4,4,BRA # specialized unit config {<enabled>,<num_units>:<latency>:<initiation>,<ID_OC_SPEC>:<OC_EX_SPEC>,<NAME>}
-specialized_unit_8         0,4,4,4,4,BRA # specialized unit config {<enabled>,<num_units>:<latency>:<initiation>,<ID_OC_SPEC>:<OC_EX_SPEC>,<NAME>}
-gpgpu_perf_sim_memcpy                    1 # Fill the L2 cache on memcpy
-gpgpu_simple_dram_model                    0 # simple_dram_model with fixed latency and BW
-gpgpu_dram_scheduler                    1 # 0 = fifo, 1 = FR-FCFS (defaul)
-gpgpu_dram_partition_queues          64:64:64:64 # i2$:$2d:d2$:$2i
-l2_ideal                               0 # Use a ideal L2 cache that always hit
-gpgpu_cache:dl2     S:32:128:24,L:B:m:L:P,A:192:4,32:0,32 # unified banked L2 data cache config  {<nsets>:<bsize>:<assoc>,<rep>:<wr>:<alloc>:<wr_alloc>,<mshr>:<N>:<merge>,<mq>}
-gpgpu_cache:dl2_texture_only                    0 # L2 cache used for texture only
-gpgpu_n_mem                           32 # number of memory modules (e.g. memory controllers) in gpu
-gpgpu_n_sub_partition_per_mchannel                    2 # number of memory subpartition in each memory module
-gpgpu_n_mem_per_ctrlr                    1 # number of memory chips per memory controller
-gpgpu_memlatency_stat                   14 # track and display latency statistics 0x2 enables MC, 0x4 enables queue logs
-gpgpu_frfcfs_dram_sched_queue_size                   64 # 0 = unlimited (default); # entries per chip
-gpgpu_dram_return_queue_size                  192 # 0 = unlimited (default); # entries per chip
-gpgpu_dram_buswidth                   16 # default = 4 bytes (8 bytes per cycle at DDR)
-gpgpu_dram_burst_length                    2 # Burst length of each DRAM request (default = 4 data bus cycle)
-dram_data_command_freq_ratio                    2 # Fe6d1683d7381959bef3c68260996ec91  /home/min/a/ee695paa/github/gpu-app-collection/bin/9.1/release/nw-rodinia-3.1
Extracting PTX file and ptxas options    1: nw-rodinia-3.1.sm_30.ptx -arch=sm_30
Extracting PTX file and ptxas options    2: nw-rodinia-3.2.sm_35.ptx -arch=sm_35
Extracting PTX file and ptxas options    3: nw-rodinia-3.3.sm_50.ptx -arch=sm_50
Extracting PTX file and ptxas options    4: nw-rodinia-3.4.sm_60.ptx -arch=sm_60
Extracting PTX file and ptxas options    5: nw-rodinia-3.5.sm_62.ptx -arch=sm_62
requency ratio between DRAM data bus and command bus (default = 2 times, i.e. DDR)
-gpgpu_dram_timing_opt nbk=16:CCD=1:RRD=3:RCD=12:RAS=28:RP=12:RC=40: CL=12:WL=2:CDLR=3:WR=10:nbkgrp=4:CCDL=2:RTPL=3 # DRAM timing parameters = {nbk:tCCD:tRRD:tRCD:tRAS:tRP:tRC:CL:WL:tCDLR:tWR:nbkgrp:tCCDL:tRTPL}
-gpgpu_l2_rop_latency                  160 # ROP queue latency (default 85)
-dram_latency                         100 # DRAM latency (default 30)
-dram_dual_bus_interface                    1 # dual_bus_interface (default = 0) 
-dram_bnk_indexing_policy                    0 # dram_bnk_indexing_policy (0 = normal indexing, 1 = Xoring with the higher bits) (Default = 0)
-dram_bnkgrp_indexing_policy                    1 # dram_bnkgrp_indexing_policy (0 = take higher bits, 1 = take lower bits) (Default = 0)
-dram_seperate_write_queue_enable                    0 # Seperate_Write_Queue_Enable
-dram_write_queue_size             32:28:16 # Write_Queue_Size
-dram_elimnate_rw_turnaround                    0 # elimnate_rw_turnaround i.e set tWTR and tRTW = 0
-icnt_flit_size                        40 # icnt_flit_size
-gpgpu_mem_addr_mapping dramid@8;00000000.00000000.00000000.00000000.0000RRRR.RRRRRRRR.RBBBCCCB.CCCSSSSS # mapping memory address to dram model {dramid@<start bit>;<memory address map>}
-gpgpu_mem_addr_test                    0 # run sweep test to check address mapping for aliased address
-gpgpu_mem_address_mask                    1 # 0 = old addressing mask, 1 = new addressing mask, 2 = new add. mask + flipped bank sel and chip sel bits
-gpgpu_memory_partition_indexing                    2 # 0 = no indexing, 1 = bitwise xoring, 2 = IPoly, 3 = custom indexing
-gpuwattch_xml_file         gpuwattch.xml # GPUWattch XML file
-power_simulation_enabled                    0 # Turn on power simulator (1=On, 0=Off)
-power_per_cycle_dump                    0 # Dump detailed power output each cycle
-power_trace_enabled                    0 # produce a file for the power trace (1=On, 0=Off)
-power_trace_zlevel                     6 # Compression level of the power trace output log (0=no comp, 9=highest)
-steady_power_levels_enabled                    0 # produce a file for the steady power levels (1=On, 0=Off)
-steady_state_definition                  8:4 # allowed deviation:number of samples
-gpgpu_max_cycle                        0 # terminates gpu simulation early (0 = no limit)
-gpgpu_max_insn                  10000000 # terminates gpu simulation early (0 = no limit)
-gpgpu_max_cta                          0 # terminates gpu simulation early (0 = no limit)
-gpgpu_max_completed_cta                    0 # terminates gpu simulation early (0 = no limit)
-gpgpu_runtime_stat                   500 # display runtime statistics such as dram utilization {<freq>:<flag>}
-liveness_message_freq                    1 # Minimum number of seconds between simulation liveness messages (0 = always print)
-gpgpu_compute_capability_major                    7 # Major compute capability version number
-gpgpu_compute_capability_minor                    0 # Minor compute capability version number
-gpgpu_flush_l1_cache                    1 # Flush L1 cache at the end of each kernel call
-gpgpu_flush_l2_cache                    0 # Flush L2 cache at the end of each kernel call
-gpgpu_deadlock_detect                    1 # Stop the simulation at deadlock (1=on (default), 0=off)
-gpgpu_ptx_instruction_classification                    0 # if enabled will classify ptx instruction types per kernel (Max 255 kernels now)
-gpgpu_ptx_sim_mode                     0 # Select between Performance (default) or Functional simulation (1)
-gpgpu_clock_domains 1132.0:1132.0:1132.0:850.0 # Clock Domain Frequencies in MhZ {<Core Clock>:<ICNT Clock>:<L2 Clock>:<DRAM Clock>}
-gpgpu_max_concurrent_kernel                    8 # maximum kernels that can run concurrently on GPU
-gpgpu_cflog_interval                    0 # Interval between each snapshot in control flow logger
-visualizer_enabled                     0 # Turn on visualizer output (1=On, 0=Off)
-visualizer_outputfile                 NULL # Specifies the output log file for visualizer
-visualizer_zlevel                      6 # Compression level of the visualizer output log (0=no comp, 9=highest)
-gpgpu_stack_size_limit                 1024 # GPU thread stack size
-gpgpu_heap_size_limit              8388608 # GPU malloc heap size 
-gpgpu_runtime_sync_depth_limit                    2 # GPU device runtime synchronize depth
-gpgpu_runtime_pending_launch_count_limit                 2048 # GPU device runtime pending launch count
-trace_enabled                          0 # Turn on traces
-trace_components                    none # comma seperated list of traces to enable. Complete list found in trace_streams.tup. Default none
-trace_sampling_core                    0 # The core which is printed using CORE_DPRINTF. Default 0
-trace_sampling_memory_partition                   -1 # The memory partition which is printed using MEMPART_DPRINTF. Default -1 (i.e. all)
-enable_ptx_file_line_stats                    1 # Turn on PTX source line statistic profiling. (1 = On)
-ptx_line_stats_filename gpgpu_inst_stats.txt # Output file for PTX source line statistics.
-gpgpu_kernel_launch_latency                 5000 # Kernel launch latency in cycles. Default: 0
-gpgpu_cdp_enabled                      0 # Turn on CDP
-gpgpu_TB_launch_latency                    0 # thread block launch latency in cycles. Default: 0
DRAM Timing Options:
nbk                                    16 # number of banks
CCD                                     1 # column to column delay
RRD                                     3 # minimal delay between activation of rows in different banks
RCD                                    12 # row to column delay
RAS                                    28 # time needed to activate row
RP                                     12 # time needed to precharge (deactivate) row
RC                                     40 # row cycle time
CDLR                                    3 # switching from write to read (changes tWTR)
WR                                     10 # last data-in to row precharge
CL                                     12 # CAS latency
WL                                      2 # Write latency
nbkgrp                                  4 # number of bank groups
CCDL                                    2 # column to column delay between accesses to different bank groups
RTPL                                    3 # read to precharge delay between accesses to different bank groups
Total number of memory sub partition = 64
addr_dec_mask[CHIP]  = 0000000000001f00 	high:13 low:8
addr_dec_mask[BK]    = 00000000000e2000 	high:20 low:13
addr_dec_mask[ROW]   = 00000001fff00000 	high:33 low:20
addr_dec_mask[COL]   = 000000000001c0ff 	high:17 low:0
addr_dec_mask[BURST] = 000000000000001f 	high:5 low:0
sub_partition_id_mask = 0000000000002000
GPGPU-Sim uArch: clock freqs: 1132000000.000000:1132000000.000000:1132000000.000000:850000000.000000
GPGPU-Sim uArch: clock periods: 0.00000000088339222615:0.00000000088339222615:0.00000000088339222615:0.00000000117647058824
*** Initializing Memory Statistics ***
GPGPU-Sim uArch: performance model initialization complete.
self exe links to: /home/min/a/ee695paa/github/gpu-app-collection/bin/9.1/release/nw-rodinia-3.1
self exe links to: /home/min/a/ee695paa/github/gpu-app-collection/bin/9.1/release/nw-rodinia-3.1
9.1
GPGPU-Sim PTX: __cudaRegisterFatBinary, fat_cubin_handle = 1, filename=default
self exe links to: /home/min/a/ee695paa/github/gpu-app-collection/bin/9.1/release/nw-rodinia-3.1
Running md5sum using "md5sum /home/min/a/ee695paa/github/gpu-app-collection/bin/9.1/release/nw-rodinia-3.1 "
self exe links to: /home/min/a/ee695paa/github/gpu-app-collection/bin/9.1/release/nw-rodinia-3.1
Extracting specific PTX file named nw-rodinia-3.1.sm_30.ptx 
Extracting specific PTX file named nw-rodinia-3.2.sm_35.ptx 
Extracting specific PTX file named nw-rodinia-3.3.sm_50.ptx 
Extracting specific PTX file named nw-rodinia-3.4.sm_60.ptx 
Extracting specific PTX file named nw-rodinia-3.5.sm_62.ptx 
Extracting specific PTX file named nw-rodiExtracting PTX file and ptxas options    6: nw-rodinia-3.6.sm_70.ptx -arch=sm_70
nia-3.6.sm_70.ptx 
GPGPU-Sim PTX: __cudaRegisterFunction _Z20needle_cuda_shared_2PiS_iiii : hostFun 0x0x400f50, fat_cubin_handle = 1
GPGPU-Sim PTX: Parsing nw-rodinia-3.1.sm_30.ptx
GPGPU-Sim PTX: allocating shared region for "_Z20needle_cuda_shared_1PiS_iiii$__cuda_local_var_16174_31_non_const_temp" from 0x0 to 0x484 (shared memory space)
GPGPU-Sim PTX: allocating shared region for "_Z20needle_cuda_shared_1PiS_iiii$__cuda_local_var_16175_31_non_const_ref" from 0x500 to 0x900 (shared memory space)
GPGPU-Sim PTX: instruction assembly for function '_Z20needle_cuda_shared_1PiS_iiii'...   done.
GPGPU-Sim PTX: allocating shared region for "_Z20needle_cuda_shared_2PiS_iiii$__cuda_local_var_16257_31_non_const_temp" from 0x0 to 0x484 (shared memory space)
GPGPU-Sim PTX: allocating shared region for "_Z20needle_cuda_shared_2PiS_iiii$__cuda_local_var_16258_31_non_const_ref" from 0x500 to 0x900 (shared memory space)
GPGPU-Sim PTX: instruction assembly for function '_Z20needle_cuda_shared_2PiS_iiii'...   done.
GPGPU-Sim PTX: finished parsing EMBEDDED .ptx file nw-rodinia-3.1.sm_30.ptx
GPGPU-Sim PTX: Parsing nw-rodinia-3.2.sm_35.ptx
GPGPU-Sim PTX: Warning %p0 was declared previous at nw-rodinia-3.1.sm_30.ptx:28 skipping new declaration
GPGPU-Sim PTX: Warning %p1 was declared previous at nw-rodinia-3.1.sm_30.ptx:28 skipping new declaration
GPGPU-Sim PTX: Warning %p2 was declared previous at nw-rodinia-3.1.sm_30.ptx:28 skipping new declaration
GPGPU-Sim PTX: Warning %p3 was declared previous at nw-rodinia-3.1.sm_30.ptx:28 skipping new declaration
GPGPU-Sim PTX: Warning %p4 was declared previous at nw-rodinia-3.1.sm_30.ptx:28 skipping new declaration
GPGPU-Sim PTX: Warning %p5 was declared previous at nw-rodinia-3.1.sm_30.ptx:28 skipping new declaration
GPGPU-Sim PTX: Warning %p6 was declared previous at nw-rodinia-3.1.sm_30.ptx:28 skipping new declaration
GPGPU-Sim PTX: Warning %p7 was declared previous at nw-rodinia-3.1.sm_30.ptx:28 skipping new declaration
GPGPU-Sim PTX: Warning %p8 was declared previous at nw-rodinia-3.1.sm_30.ptx:28 skipping new declaration
GPGPU-Sim PTX: Warning %p9 was declared previous at nw-rodinia-3.1.sm_30.ptx:28 skipping new declaration
GPGPU-Sim PTX: Warning %p10 was declared previous at nw-rodinia-3.1.sm_30.ptx:28 skipping new declaration
GPGPU-Sim PTX: Warning %p11 was declared previous at nw-rodinia-3.1.sm_30.ptx:28 skipping new declaration
GPGPU-Sim PTX: Warning %p12 was declared previous at nw-rodinia-3.1.sm_30.ptx:28 skipping new declaration
GPGPU-Sim PTX: Warning %p13 was declared previous at nw-rodinia-3.1.sm_30.ptx:28 skipping new declaration
GPGPU-Sim PTX: Warning %p14 was declared previous at nw-rodinia-3.1.sm_30.ptx:28 skipping new declaration
GPGPU-Sim PTX: Warning %p15 was declared previous at nw-rodinia-3.1.sm_30.ptx:28 skipping new declaration
GPGPU-Sim PTX: Warning %p16 was declared previous at nw-rodinia-3.1.sm_30.ptx:28 skipping new declaration
GPGPU-Sim PTX: Warning %p17 was declared previous at nw-rodinia-3.1.sm_30.ptx:28 skipping new declaration
GPGPU-Sim PTX: Warning %p18 was declared previous at nw-rodinia-3.1.sm_30.ptx:28 skipping new declaration
GPGPU-Sim PTX: Warning %p19 was declared previous at nw-rodinia-3.1.sm_30.ptx:28 skipping new declaration
GPGPU-Sim PTX: Warning %p20 was declared previous at nw-rodinia-3.1.sm_30.ptx:28 skipping new declaration
GPGPU-Sim PTX: Warning %p21 was declared previous at nw-rodinia-3.1.sm_30.ptx:28 skipping new declaration
GPGPU-Sim PTX: Warning %p22 was declared previous at nw-rodinia-3.1.sm_30.ptx:28 skipping new declaration
GPGPU-Sim PTX: Warning %p23 was declared previous at nw-rodinia-3.1.sm_30.ptx:28 skipping new declaration
GPGPU-Sim PTX: Warning %p24 was declared previous at nw-rodinia-3.1.sm_30.ptx:28 skipping new declaration
GPGPU-Sim PTX: Warning %p25 was declared previous at nw-rodinia-3.1.sm_30.ptx:28 skipping new declaration
GPGPU-Sim PTX: Warning %p26 was declared previous at nw-rodinia-3.1.sm_30.ptx:28 skipping new declaration
GPGPU-Sim PTX: Warning %p27 was declared previous at nw-rodinia-3.1.sm_30.ptx:28 skipping new declaration
GPGPU-Sim PTX: Warning %p28 was declared previous at nw-rodinia-3.1.sm_30.ptx:28 skipping new declaration
GPGPU-Sim PTX: Warning %p29 was declared previous at nw-rodinia-3.1.sm_30.ptx:28 skipping new declaration
GPGPU-Sim PTX: Warning %p30 was declared previous at nw-rodinia-3.1.sm_30.ptx:28 skipping new declaration
GPGPU-Sim PTX: Warning %p31 was declared previous at nw-rodinia-3.1.sm_30.ptx:28 skipping new declaration
GPGPU-Sim PTX: Warning %p32 was declared previous at nw-rodinia-3.1.sm_30.ptx:28 skipping new declaration
GPGPU-Sim PTX: Warning %r0 was declared previous at nw-rodinia-3.1.sm_30.ptx:29 skipping new declaration
GPGPU-Sim PTX: Warning %r1 was declared previous at nw-rodinia-3.1.sm_30.ptx:29 skipping new declaration
GPGPU-Sim PTX: Warning %r2 was declared previous at nw-rodinia-3.1.sm_30.ptx:29 skipping new declaration
GPGPU-Sim PTX: Warning %r3 was declared previous at nw-rodinia-3.1.sm_30.ptx:29 skipping new declaration
GPGPU-Sim PTX: Warning %r4 was declared previous at nw-rodinia-3.1.sm_30.ptx:29 skipping new declaration
GPGPU-Sim PTX: Warning %r5 was declared previous at nw-rodinia-3.1.sm_30.ptx:29 skipping new declaration
GPGPU-Sim PTX: Warning %r6 was declared previous at nw-rodinia-3.1.sm_30.ptx:29 skipping new declaration
GPGPU-Sim PTX: Warning %r7 was declared previous at nw-rodinia-3.1.sm_30.ptx:29 skipping new declaration
GPGPU-Sim PTX: Warning %r8 was declared previous at nw-rodinia-3.1.sm_30.ptx:29 skipping new declaration
GPGPU-Sim PTX: Warning %r9 was declared previous at nw-rodinia-3.1.sm_30.ptx:29 skipping new declaration
GPGPU-Sim PTX: Warning %r10 was declared previous at nw-rodinia-3.1.sm_30.ptx:29 skipping new declaration
GPGPU-Sim PTX: Warning %r11 was declared previous at nw-rodinia-3.1.sm_30.ptx:29 skipping new declaration
GPGPU-Sim PTX: Warning %r12 was declared previous at nw-rodinia-3.1.sm_30.ptx:29 skipping new declaration
GPGPU-Sim PTX: Warning %r13 was declared previous at nw-rodinia-3.1.sm_30.ptx:29 skipping new declaration
GPGPU-Sim PTX: Warning %r14 was declared previous at nw-rodinia-3.1.sm_30.ptx:29 skipping new declaration
GPGPU-Sim PTX: Warning %r15 was declared previous at nw-rodinia-3.1.sm_30.ptx:29 skipping new declaration
GPGPU-Sim PTX: Warning %r16 was declared previous at nw-rodinia-3.1.sm_30.ptx:29 skipping new declaration
GPGPU-Sim PTX: Warning %r17 was declared previous at nw-rodinia-3.1.sm_30.ptx:29 skipping new declaration
GPGPU-Sim PTX: Warning %r18 was declared previous at nw-rodinia-3.1.sm_30.ptx:29 skipping new declaration
GPGPU-Sim PTX: Warning %r19 was declared previous at nw-rodinia-3.1.sm_30.ptx:29 skipping new declaration
GPGPU-Sim PTX: Warning %r20 was declared previous at nw-rodinia-3.1.sm_30.ptx:29 skipping new declaration
GPGPU-Sim PTX: Warning %r21 was declared previous at nw-rodinia-3.1.sm_30.ptx:29 skipping new declaration
GPGPU-Sim PTX: Warning %r22 was declared previous at nw-rodinia-3.1.sm_30.ptx:29 skipping new declaration
GPGPU-Sim PTX: Warning %r23 was declared previous at nw-rodinia-3.1.sm_30.ptx:29 skipping new declaration
GPGPU-Sim PTX: Warning %r24 was declared previous at nw-rodinia-3.1.sm_30.ptx:29 skipping new declaration
GPGPU-Sim PTX: Warning %r25 was declared previous at nw-rodinia-3.1.sm_30.ptx:29 skipping new declaration
GPGPU-Sim PTX: Warning %r26 was declared previous at nw-rodinia-3.1.sm_30.ptx:29 skipping new declaration
GPGPU-Sim PTX: Warning %r27 was declared previous at nw-rodinia-3.1.sm_30.ptx:29 skipping new declaration
GPGPU-Sim PTX: Warning %r28 was declared previous at nw-rodinia-3.1.sm_30.ptx:29 skipping new declaration
GPGPU-Sim PTX: Warning %r29 was declared previous at nw-rodinia-3.1.sm_30.ptx:29 skipping new declaration
GPGPU-Sim PTX: Warning %r30 was declared previous at nw-rodinia-3.1.sm_30.ptx:29 skipping new declaration
GPGPU-Sim PTX: Warning %r31 was declared previous at nw-rodinia-3.1.sm_30.ptx:29 skipping new declaration
GPGPU-Sim PTX: Warning %r32 was declared previous at nw-rodinia-3.1.sm_30.ptx:29 skipping new declaration
GPGPU-Sim PTX: Warning %r33 was declared previous at nw-rodinia-3.1.sm_30.ptx:29 skipping new declaration
GPGPU-Sim PTX: Warning %r34 was declared previous at nw-rodinia-3.1.sm_30.ptx:29 skipping new declaration
GPGPU-Sim PTX: Warning %r35 was declared previous at nw-rodinia-3.1.sm_30.ptx:29 skipping new declaration
GPGPU-Sim PTX: Warning %r36 was declared previous at nw-rodinia-3.1.sm_30.ptx:29 skipping new declaration
GPGPU-Sim PTX: Warning %r37 was declared previous at nw-rodinia-3.1.sm_30.ptx:29 skipping new declaration
GPGPU-Sim PTX: Warning %r38 was declared previous at nw-rodinia-3.1.sm_30.ptx:29 skipping new declaration
GPGPU-Sim PTX: Warning %r39 was declared previous at nw-rodinia-3.1.sm_30.ptx:29 skipping new declaration
GPGPU-Sim PTX: Warning %r40 was declared previous at nw-rodinia-3.1.sm_30.ptx:29 skipping new declaration
GPGPU-Sim PTX: Warning %r41 was declared previous at nw-rodinia-3.1.sm_30.ptx:29 skipping new declaration
GPGPU-Sim PTX: Warning %r42 was declared previous at nw-rodinia-3.1.sm_30.ptx:29 skipping new declaration
GPGPU-Sim PTX: Warning %r43 was declared previous at nw-rodinia-3.1.sm_30.ptx:29 skipping new declaration
GPGPU-Sim PTX: Warning %r44 was declared previous at nw-rodinia-3.1.sm_30.ptx:29 skipping new declaration
GPGPU-Sim PTX: Warning %r45 was declared previous at nw-rodinia-3.1.sm_30.ptx:29 skipping new declaration
GPGPU-Sim PTX: Warning %r46 was declared previous at nw-rodinia-3.1.sm_30.ptx:29 skipping new declaration
GPGPU-Sim PTX: Warning %r47 was declared previous at nw-rodinia-3.1.sm_30.ptx:29 skipping new declaration
GPGPU-Sim PTX: Warning %r48 was declared previous at nw-rodinia-3.1.sm_30.ptx:29 skipping new declaration
GPGPU-Sim PTX: Warning %r49 was declared previous at nw-rodinia-3.1.sm_30.ptx:29 skipping new declaration
GPGPU-Sim PTX: Warning %r50 was declared previous at nw-rodinia-3.1.sm_30.ptx:29 skipping new declaration
GPGPU-Sim PTX: Warning %r51 was declared previous at nw-rodinia-3.1.sm_30.ptx:29 skipping new declaration
GPGPU-Sim PTX: Warning %r52 was declared previous at nw-rodinia-3.1.sm_30.ptx:29 skipping new declaration
GPGPU-Sim PTX: Warning %r53 was declared previous at nw-rodinia-3.1.sm_30.ptx:29 skipping new declaration
GPGPU-Sim PTX: Warning %r54 was declared previous at nw-rodinia-3.1.sm_30.ptx:29 skipping new declaration
GPGPU-Sim PTX: Warning %r55 was declared previous at nw-rodinia-3.1.sm_30.ptx:29 skipping new declaration
GPGPU-Sim PTX: Warning %r56 was declared previous at nw-rodinia-3.1.sm_30.ptx:29 skipping new declaration
GPGPU-Sim PTX: Warning %r57 was declared previous at nw-rodinia-3.1.sm_30.ptx:29 skipping new declaration
GPGPU-Sim PTX: Warning %r58 was declared previous at nw-rodinia-3.1.sm_30.ptx:29 skipping new declaration
GPGPU-Sim PTX: Warning %r59 was declared previous at nw-rodinia-3.1.sm_30.ptx:29 skipping new declaration
GPGPU-Sim PTX: Warning %r60 was declared previous at nw-rodinia-3.1.sm_30.ptx:29 skipping new declaration
GPGPU-Sim PTX: Warning %r61 was declared previous at nw-rodinia-3.1.sm_30.ptx:29 skipping new declaration
GPGPU-Sim PTX: Warning %r62 was declared previous at nw-rodinia-3.1.sm_30.ptx:29 skipping new declaration
GPGPU-Sim PTX: Warning %r63 was declared previous at nw-rodinia-3.1.sm_30.ptx:29 skipping new declaration
GPGPU-Sim PTX: Warning %r64 was declared previous at nw-rodinia-3.1.sm_30.ptx:29 skipping new declaration
GPGPU-Sim PTX: Warning %r65 was declared previous at nw-rodinia-3.1.sm_30.ptx:29 skipping new declaration
GPGPU-Sim PTX: Warning %r66 was declared previous at nw-rodinia-3.1.sm_30.ptx:29 skipping new declaration
GPGPU-Sim PTX: Warning %r67 was declared previous at nw-rodinia-3.1.sm_30.ptx:29 skipping new declaration
GPGPU-Sim PTX: Warning %r68 was declared previous at nw-rodinia-3.1.sm_30.ptx:29 skipping new declaration
GPGPU-Sim PTX: Warning %r69 was declared previous at nw-rodinia-3.1.sm_30.ptx:29 skipping new declaration
GPGPU-Sim PTX: Warning %r70 was declared previous at nw-rodinia-3.1.sm_30.ptx:29 skipping new declaration
GPGPU-Sim PTX: Warning %r71 was declared previous at nw-rodinia-3.1.sm_30.ptx:29 skipping new declaration
GPGPU-Sim PTX: Warning %r72 was declared previous at nw-rodinia-3.1.sm_30.ptx:29 skipping new declaration
GPGPU-Sim PTX: Warning %r73 was declared previous at nw-rodinia-3.1.sm_30.ptx:29 skipping new declaration
GPGPU-Sim PTX: Warning %r74 was declared previous at nw-rodinia-3.1.sm_30.ptx:29 skipping new declaration
GPGPU-Sim PTX: Warning %r75 was declared previous at nw-rodinia-3.1.sm_30.ptx:29 skipping new declaration
GPGPU-Sim PTX: Warning %r76 was declared previous at nw-rodinia-3.1.sm_30.ptx:29 skipping new declaration
GPGPU-Sim PTX: Warning %r77 was declared previous at nw-rodinia-3.1.sm_30.ptx:29 skipping new declaration
GPGPU-Sim PTX: Warning %r78 was declared previous at nw-rodinia-3.1.sm_30.ptx:29 skipping new declaration
GPGPU-Sim PTX: Warning %r79 was declared previous at nw-rodinia-3.1.sm_30.ptx:29 skipping new declaration
GPGPU-Sim PTX: Warning %r80 was declared previous at nw-rodinia-3.1.sm_30.ptx:29 skipping new declaration
GPGPU-Sim PTX: Warning %r81 was declared previous at nw-rodinia-3.1.sm_30.ptx:29 skipping new declaration
GPGPU-Sim PTX: Warning %r82 was declared previous at nw-rodinia-3.1.sm_30.ptx:29 skipping new declaration
GPGPU-Sim PTX: Warning %r83 was declared previous at nw-rodinia-3.1.sm_30.ptx:29 skipping new declaration
GPGPU-Sim PTX: Warning %r84 was declared previous at nw-rodinia-3.1.sm_30.ptx:29 skipping new declaration
GPGPU-Sim PTX: Warning %r85 was declared previous at nw-rodinia-3.1.sm_30.ptx:29 skipping new declaration
GPGPU-Sim PTX: Warning %r86 was declared previous at nw-rodinia-3.1.sm_30.ptx:29 skipping new declaration
GPGPU-Sim PTX: Warning %r87 was declared previous at nw-rodinia-3.1.sm_30.ptx:29 skipping new declaration
GPGPU-Sim PTX: Warning %r88 was declared previous at nw-rodinia-3.1.sm_30.ptx:29 skipping new declaration
GPGPU-Sim PTX: Warning %r89 was declared previous at nw-rodinia-3.1.sm_30.ptx:29 skipping new declaration
GPGPU-Sim PTX: Warning %r90 was declared previous at nw-rodinia-3.1.sm_30.ptx:29 skipping new declaration
GPGPU-Sim PTX: Warning %r91 was declared previous at nw-rodinia-3.1.sm_30.ptx:29 skipping new declaration
GPGPU-Sim PTX: Warning %r92 was declared previous at nw-rodinia-3.1.sm_30.ptx:29 skipping new declaration
GPGPU-Sim PTX: Warning %r93 was declared previous at nw-rodinia-3.1.sm_30.ptx:29 skipping new declaration
GPGPU-Sim PTX: Warning %r94 was declared previous at nw-rodinia-3.1.sm_30.ptx:29 skipping new declaration
GPGPU-Sim PTX: Warning %r95 was declared previous at nw-rodinia-3.1.sm_30.ptx:29 skipping new declaration
GPGPU-Sim PTX: Warning %r96 was declared previous at nw-rodinia-3.1.sm_30.ptx:29 skipping new declaration
GPGPU-Sim PTX: Warning %r97 was declared previous at nw-rodinia-3.1.sm_30.ptx:29 skipping new declaration
GPGPU-Sim PTX: Warning %r98 was declared previous at nw-rodinia-3.1.sm_30.ptx:29 skipping new declaration
GPGPU-Sim PTX: Warning %r99 was declared previous at nw-rodinia-3.1.sm_30.ptx:29 skipping new declaration
GPGPU-Sim PTX: Warning %r100 was declared previous at nw-rodinia-3.1.sm_30.ptx:29 skipping new declaration
GPGPU-Sim PTX: Warning %r101 was declared previous at nw-rodinia-3.1.sm_30.ptx:29 skipping new declaration
GPGPU-Sim PTX: Warning %r102 was declared previous at nw-rodinia-3.1.sm_30.ptx:29 skipping new declaration
GPGPU-Sim PTX: Warning %r103 was declared previous at nw-rodinia-3.1.sm_30.ptx:29 skipping new declaration
GPGPU-Sim PTX: Warning %r104 was declared previous at nw-rodinia-3.1.sm_30.ptx:29 skipping new declaration
GPGPU-Sim PTX: Warning %r105 was declared previous at nw-rodinia-3.1.sm_30.ptx:29 skipping new declaration
GPGPU-Sim PTX: Warning %r106 was declared previous at nw-rodinia-3.1.sm_30.ptx:29 skipping new declaration
GPGPU-Sim PTX: Warning %r107 was declared previous at nw-rodinia-3.1.sm_30.ptx:29 skipping new declaration
GPGPU-Sim PTX: Warning %r108 was declared previous at nw-rodinia-3.1.sm_30.ptx:29 skipping new declaration
GPGPU-Sim PTX: Warning %r109 was declared previous at nw-rodinia-3.1.sm_30.ptx:29 skipping new declaration
GPGPU-Sim PTX: Warning %r110 was declared previous at nw-rodinia-3.1.sm_30.ptx:29 skipping new declaration
GPGPU-Sim PTX: Warning %r111 was declared previous at nw-rodinia-3.1.sm_30.ptx:29 skipping new declaration
GPGPU-Sim PTX: Warning %r112 was declared previous at nw-rodinia-3.1.sm_30.ptx:29 skipping new declaration
GPGPU-Sim PTX: Warning %r113 was declared previous at nw-rodinia-3.1.sm_30.ptx:29 skipping new declaration
GPGPU-Sim PTX: Warning %r114 was declared previous at nw-rodinia-3.1.sm_30.ptx:29 skipping new declaration
GPGPU-Sim PTX: Warning %r115 was declared previous at nw-rodinia-3.1.sm_30.ptx:29 skipping new declaration
GPGPU-Sim PTX: Warning %r116 was declared previous at nw-rodinia-3.1.sm_30.ptx:29 skipping new declaration
GPGPU-Sim PTX: Warning %r117 was declared previous at nw-rodinia-3.1.sm_30.ptx:29 skipping new declaration
GPGPU-Sim PTX: Warning %r118 was declared previous at nw-rodinia-3.1.sm_30.ptx:29 skipping new declaration
GPGPU-Sim PTX: Warning %r119 was declared previous at nw-rodinia-3.1.sm_30.ptx:29 skipping new declaration
GPGPU-Sim PTX: Warning %r120 was declared previous at nw-rodinia-3.1.sm_30.ptx:29 skipping new declaration
GPGPU-Sim PTX: Warning %r121 was declared previous at nw-rodinia-3.1.sm_30.ptx:29 skipping new declaration
GPGPU-Sim PTX: Warning %r122 was declared previous at nw-rodinia-3.1.sm_30.ptx:29 skipping new declaration
GPGPU-Sim PTX: Warning %r123 was declared previous at nw-rodinia-3.1.sm_30.ptx:29 skipping new declaration
GPGPU-Sim PTX: Warning %r124 was declared previous at nw-rodinia-3.1.sm_30.ptx:29 skipping new declaration
GPGPU-Sim PTX: Warning %r125 was declared previous at nw-rodinia-3.1.sm_30.ptx:29 skipping new declaration
GPGPU-Sim PTX: Warning %r126 was declared previous at nw-rodinia-3.1.sm_30.ptx:29 skipping new declaration
GPGPU-Sim PTX: Warning %r127 was declared previous at nw-rodinia-3.1.sm_30.ptx:29 skipping new declaration
GPGPU-Sim PTX: Warning %r128 was declared previous at nw-rodinia-3.1.sm_30.ptx:29 skipping new declaration
GPGPU-Sim PTX: Warning %r129 was declared previous at nw-rodinia-3.1.sm_30.ptx:29 skipping new declaration
GPGPU-Sim PTX: Warning %r130 was declared previous at nw-rodinia-3.1.sm_30.ptx:29 skipping new declaration
GPGPU-Sim PTX: Warning %r131 was declared previous at nw-rodinia-3.1.sm_30.ptx:29 skipping new declaration
GPGPU-Sim PTX: Warning %r132 was declared previous at nw-rodinia-3.1.sm_30.ptx:29 skipping new declaration
GPGPU-Sim PTX: Warning %r133 was declared previous at nw-rodinia-3.1.sm_30.ptx:29 skipping new declaration
GPGPU-Sim PTX: Warning %r134 was declared previous at nw-rodinia-3.1.sm_30.ptx:29 skipping new declaration
GPGPU-Sim PTX: Warning %r135 was declared previous at nw-rodinia-3.1.sm_30.ptx:29 skipping new declaration
GPGPU-Sim PTX: Warning %r136 was declared previous at nw-rodinia-3.1.sm_30.ptx:29 skipping new declaration
GPGPU-Sim PTX: Warning %r137 was declared previous at nw-rodinia-3.1.sm_30.ptx:29 skipping new declaration
GPGPU-Sim PTX: Warning %r138 was declared previous at nw-rodinia-3.1.sm_30.ptx:29 skipping new declaration
GPGPU-Sim PTX: Warning %r139 was declared previous at nw-rodinia-3.1.sm_30.ptx:29 skipping new declaration
GPGPU-Sim PTX: Warning %r140 was declared previous at nw-rodinia-3.1.sm_30.ptx:29 skipping new declaration
GPGPU-Sim PTX: Warning %r141 was declared previous at nw-rodinia-3.1.sm_30.ptx:29 skipping new declaration
GPGPU-Sim PTX: Warning %r142 was declared previous at nw-rodinia-3.1.sm_30.ptx:29 skipping new declaration
GPGPU-Sim PTX: Warning %r143 was declared previous at nw-rodinia-3.1.sm_30.ptx:29 skipping new declaration
GPGPU-Sim PTX: Warning %r144 was declared previous at nw-rodinia-3.1.sm_30.ptx:29 skipping new declaration
GPGPU-Sim PTX: Warning %r145 was declared previous at nw-rodinia-3.1.sm_30.ptx:29 skipping new declaration
GPGPU-Sim PTX: Warning %r146 was declared previous at nw-rodinia-3.1.sm_30.ptx:29 skipping new declaration
GPGPU-Sim PTX: Warning %r147 was declared previous at nw-rodinia-3.1.sm_30.ptx:29 skipping new declaration
GPGPU-Sim PTX: Warning %r148 was declared previous at nw-rodinia-3.1.sm_30.ptx:29 skipping new declaration
GPGPU-Sim PTX: Warning %r149 was declared previous at nw-rodinia-3.1.sm_30.ptx:29 skipping new declaration
GPGPU-Sim PTX: Warning %r150 was declared previous at nw-rodinia-3.1.sm_30.ptx:29 skipping new declaration
GPGPU-Sim PTX: Warning %r151 was declared previous at nw-rodinia-3.1.sm_30.ptx:29 skipping new declaration
GPGPU-Sim PTX: Warning %r152 was declared previous at nw-rodinia-3.1.sm_30.ptx:29 skipping new declaration
GPGPU-Sim PTX: Warning %r153 was declared previous at nw-rodinia-3.1.sm_30.ptx:29 skipping new declaration
GPGPU-Sim PTX: Warning %r154 was declared previous at nw-rodinia-3.1.sm_30.ptx:29 skipping new declaration
GPGPU-Sim PTX: Warning %r155 was declared previous at nw-rodinia-3.1.sm_30.ptx:29 skipping new declaration
GPGPU-Sim PTX: Warning %r156 was declared previous at nw-rodinia-3.1.sm_30.ptx:29 skipping new declaration
GPGPU-Sim PTX: Warning %r157 was declared previous at nw-rodinia-3.1.sm_30.ptx:29 skipping new declaration
GPGPU-Sim PTX: Warning %r158 was declared previous at nw-rodinia-3.1.sm_30.ptx:29 skipping new declaration
GPGPU-Sim PTX: Warning %r159 was declared previous at nw-rodinia-3.1.sm_30.ptx:29 skipping new declaration
GPGPU-Sim PTX: Warning %r160 was declared previous at nw-rodinia-3.1.sm_30.ptx:29 skipping new declaration
GPGPU-Sim PTX: Warning %r161 was declared previous at nw-rodinia-3.1.sm_30.ptx:29 skipping new declaration
GPGPU-Sim PTX: Warning %r162 was declared previous at nw-rodinia-3.1.sm_30.ptx:29 skipping new declaration
GPGPU-Sim PTX: Warning %r163 was declared previous at nw-rodinia-3.1.sm_30.ptx:29 skipping new declaration
GPGPU-Sim PTX: Warning %r164 was declared previous at nw-rodinia-3.1.sm_30.ptx:29 skipping new declaration
GPGPU-Sim PTX: Warning %r165 was declared previous at nw-rodinia-3.1.sm_30.ptx:29 skipping new declaration
GPGPU-Sim PTX: Warning %r166 was declared previous at nw-rodinia-3.1.sm_30.ptx:29 skipping new declaration
GPGPU-Sim PTX: Warning %r167 was declared previous at nw-rodinia-3.1.sm_30.ptx:29 skipping new declaration
GPGPU-Sim PTX: Warning %r168 was declared previous at nw-rodinia-3.1.sm_30.ptx:29 skipping new declaration
GPGPU-Sim PTX: Warning %r169 was declared previous at nw-rodinia-3.1.sm_30.ptx:29 skipping new declaration
GPGPU-Sim PTX: Warning %r170 was declared previous at nw-rodinia-3.1.sm_30.ptx:29 skipping new declaration
GPGPU-Sim PTX: Warning %r171 was declared previous at nw-rodinia-3.1.sm_30.ptx:29 skipping new declaration
GPGPU-Sim PTX: Warning %r172 was declared previous at nw-rodinia-3.1.sm_30.ptx:29 skipping new declaration
GPGPU-Sim PTX: Warning %r173 was declared previous at nw-rodinia-3.1.sm_30.ptx:29 skipping new declaration
GPGPU-Sim PTX: Warning %r174 was declared previous at nw-rodinia-3.1.sm_30.ptx:29 skipping new declaration
GPGPU-Sim PTX: Warning %r175 was declared previous at nw-rodinia-3.1.sm_30.ptx:29 skipping new declaration
GPGPU-Sim PTX: Warning %r176 was declared previous at nw-rodinia-3.1.sm_30.ptx:29 skipping new declaration
GPGPU-Sim PTX: Warning %r177 was declared previous at nw-rodinia-3.1.sm_30.ptx:29 skipping new declaration
GPGPU-Sim PTX: Warning %r178 was declared previous at nw-rodinia-3.1.sm_30.ptx:29 skipping new declaration
GPGPU-Sim PTX: Warning %r179 was declared previous at nw-rodinia-3.1.sm_30.ptx:29 skipping new declaration
GPGPU-Sim PTX: Warning %r180 was declared previous at nw-rodinia-3.1.sm_30.ptx:29 skipping new declaration
GPGPU-Sim PTX: Warning %r181 was declared previous at nw-rodinia-3.1.sm_30.ptx:29 skipping new declaration
GPGPU-Sim PTX: Warning %r182 was declared previous at nw-rodinia-3.1.sm_30.ptx:29 skipping new declaration
GPGPU-Sim PTX: Warning %r183 was declared previous at nw-rodinia-3.1.sm_30.ptx:29 skipping new declaration
GPGPU-Sim PTX: Warning %r184 was declared previous at nw-rodinia-3.1.sm_30.ptx:29 skipping new declaration
GPGPU-Sim PTX: Warning %r185 was declared previous at nw-rodinia-3.1.sm_30.ptx:29 skipping new declaration
GPGPU-Sim PTX: Warning %r186 was declared previous at nw-rodinia-3.1.sm_30.ptx:29 skipping new declaration
GPGPU-Sim PTX: Warning %r187 was declared previous at nw-rodinia-3.1.sm_30.ptx:29 skipping new declaration
GPGPU-Sim PTX: Warning %r188 was declared previous at nw-rodinia-3.1.sm_30.ptx:29 skipping new declaration
GPGPU-Sim PTX: Warning %r189 was declared previous at nw-rodinia-3.1.sm_30.ptx:29 skipping new declaration
GPGPU-Sim PTX: Warning %r190 was declared previous at nw-rodinia-3.1.sm_30.ptx:29 skipping new declaration
GPGPU-Sim PTX: Warning %r191 was declared previous at nw-rodinia-3.1.sm_30.ptx:29 skipping new declaration
GPGPU-Sim PTX: Warning %r192 was declared previous at nw-rodinia-3.1.sm_30.ptx:29 skipping new declaration
GPGPU-Sim PTX: Warning %r193 was declared previous at nw-rodinia-3.1.sm_30.ptx:29 skipping new declaration
GPGPU-Sim PTX: Warning %r194 was declared previous at nw-rodinia-3.1.sm_30.ptx:29 skipping new declaration
GPGPU-Sim PTX: Warning %r195 was declared previous at nw-rodinia-3.1.sm_30.ptx:29 skipping new declaration
GPGPU-Sim PTX: Warning %r196 was declared previous at nw-rodinia-3.1.sm_30.ptx:29 skipping new declaration
GPGPU-Sim PTX: Warning %r197 was declared previous at nw-rodinia-3.1.sm_30.ptx:29 skipping new declaration
GPGPU-Sim PTX: Warning %r198 was declared previous at nw-rodinia-3.1.sm_30.ptx:29 skipping new declaration
GPGPU-Sim PTX: Warning %r199 was declared previous at nw-rodinia-3.1.sm_30.ptx:29 skipping new declaration
GPGPU-Sim PTX: Warning %r200 was declared previous at nw-rodinia-3.1.sm_30.ptx:29 skipping new declaration
GPGPU-Sim PTX: Warning %r201 was declared previous at nw-rodinia-3.1.sm_30.ptx:29 skipping new declaration
GPGPU-Sim PTX: Warning %r202 was declared previous at nw-rodinia-3.1.sm_30.ptx:29 skipping new declaration
GPGPU-Sim PTX: Warning %r203 was declared previous at nw-rodinia-3.1.sm_30.ptx:29 skipping new declaration
GPGPU-Sim PTX: Warning %r204 was declared previous at nw-rodinia-3.1.sm_30.ptx:29 skipping new declaration
GPGPU-Sim PTX: Warning %r205 was declared previous at nw-rodinia-3.1.sm_30.ptx:29 skipping new declaration
GPGPU-Sim PTX: Warning %r206 was declared previous at nw-rodinia-3.1.sm_30.ptx:29 skipping new declaration
GPGPU-Sim PTX: Warning %r207 was declared previous at nw-rodinia-3.1.sm_30.ptx:29 skipping new declaration
GPGPU-Sim PTX: Warning %r208 was declared previous at nw-rodinia-3.1.sm_30.ptx:29 skipping new declaration
GPGPU-Sim PTX: Warning %r209 was declared previous at nw-rodinia-3.1.sm_30.ptx:29 skipping new declaration
GPGPU-Sim PTX: Warning %r210 was declared previous at nw-rodinia-3.1.sm_30.ptx:29 skipping new declaration
GPGPU-Sim PTX: Warning %r211 was declared previous at nw-rodinia-3.1.sm_30.ptx:29 skipping new declaration
GPGPU-Sim PTX: Warning %r212 was declared previous at nw-rodinia-3.1.sm_30.ptx:29 skipping new declaration
GPGPU-Sim PTX: Warning %r213 was declared previous at nw-rodinia-3.1.sm_30.ptx:29 skipping new declaration
GPGPU-Sim PTX: Warning %r214 was declared previous at nw-rodinia-3.1.sm_30.ptx:29 skipping new declaration
GPGPU-Sim PTX: Warning %r215 was declared previous at nw-rodinia-3.1.sm_30.ptx:29 skipping new declaration
GPGPU-Sim PTX: Warning %r216 was declared previous at nw-rodinia-3.1.sm_30.ptx:29 skipping new declaration
GPGPU-Sim PTX: Warning %r217 was declared previous at nw-rodinia-3.1.sm_30.ptx:29 skipping new declaration
GPGPU-Sim PTX: Warning %r218 was declared previous at nw-rodinia-3.1.sm_30.ptx:29 skipping new declaration
GPGPU-Sim PTX: Warning %r219 was declared previous at nw-rodinia-3.1.sm_30.ptx:29 skipping new declaration
GPGPU-Sim PTX: Warning %r220 was declared previous at nw-rodinia-3.1.sm_30.ptx:29 skipping new declaration
GPGPU-Sim PTX: Warning %r221 was declared previous at nw-rodinia-3.1.sm_30.ptx:29 skipping new declaration
GPGPU-Sim PTX: Warning %r222 was declared previous at nw-rodinia-3.1.sm_30.ptx:29 skipping new declaration
GPGPU-Sim PTX: Warning %r223 was declared previous at nw-rodinia-3.1.sm_30.ptx:29 skipping new declaration
GPGPU-Sim PTX: Warning %r224 was declared previous at nw-rodinia-3.1.sm_30.ptx:29 skipping new declaration
GPGPU-Sim PTX: Warning %r225 was declared previous at nw-rodinia-3.1.sm_30.ptx:29 skipping new declaration
GPGPU-Sim PTX: Warning %r226 was declared previous at nw-rodinia-3.1.sm_30.ptx:29 skipping new declaration
GPGPU-Sim PTX: Warning %r227 was declared previous at nw-rodinia-3.1.sm_30.ptx:29 skipping new declaration
GPGPU-Sim PTX: Warning %r228 was declared previous at nw-rodinia-3.1.sm_30.ptx:29 skipping new declaration
GPGPU-Sim PTX: Warning %r229 was declared previous at nw-rodinia-3.1.sm_30.ptx:29 skipping new declaration
GPGPU-Sim PTX: Warning %r230 was declared previous at nw-rodinia-3.1.sm_30.ptx:29 skipping new declaration
GPGPU-Sim PTX: Warning %r231 was declared previous at nw-rodinia-3.1.sm_30.ptx:29 skipping new declaration
GPGPU-Sim PTX: Warning %r232 was declared previous at nw-rodinia-3.1.sm_30.ptx:29 skipping new declaration
GPGPU-Sim PTX: Warning %r233 was declared previous at nw-rodinia-3.1.sm_30.ptx:29 skipping new declaration
GPGPU-Sim PTX: Warning %r234 was declared previous at nw-rodinia-3.1.sm_30.ptx:29 skipping new declaration
GPGPU-Sim PTX: Warning %r235 was declared previous at nw-rodinia-3.1.sm_30.ptx:29 skipping new declaration
GPGPU-Sim PTX: Warning %r236 was declared previous at nw-rodinia-3.1.sm_30.ptx:29 skipping new declaration
GPGPU-Sim PTX: Warning %r237 was declared previous at nw-rodinia-3.1.sm_30.ptx:29 skipping new declaration
GPGPU-Sim PTX: Warning %r238 was declared previous at nw-rodinia-3.1.sm_30.ptx:29 skipping new declaration
GPGPU-Sim PTX: Warning %r239 was declared previous at nw-rodinia-3.1.sm_30.ptx:29 skipping new declaration
GPGPU-Sim PTX: Warning %r240 was declared previous at nw-rodinia-3.1.sm_30.ptx:29 skipping new declaration
GPGPU-Sim PTX: Warning %r241 was declared previous at nw-rodinia-3.1.sm_30.ptx:29 skipping new declaration
GPGPU-Sim PTX: Warning %r242 was declared previous at nw-rodinia-3.1.sm_30.ptx:29 skipping new declaration
GPGPU-Sim PTX: Warning %r243 was declared previous at nw-rodinia-3.1.sm_30.ptx:29 skipping new declaration
GPGPU-Sim PTX: Warning %r244 was declared previous at nw-rodinia-3.1.sm_30.ptx:29 skipping new declaration
GPGPU-Sim PTX: Warning %r245 was declared previous at nw-rodinia-3.1.sm_30.ptx:29 skipping new declaration
GPGPU-Sim PTX: Warning %r246 was declared previous at nw-rodinia-3.1.sm_30.ptx:29 skipping new declaration
GPGPU-Sim PTX: Warning %r247 was declared previous at nw-rodinia-3.1.sm_30.ptx:29 skipping new declaration
GPGPU-Sim PTX: Warning %r248 was declared previous at nw-rodinia-3.1.sm_30.ptx:29 skipping new declaration
GPGPU-Sim PTX: Warning %r249 was declared previous at nw-rodinia-3.1.sm_30.ptx:29 skipping new declaration
GPGPU-Sim PTX: Warning %r250 was declared previous at nw-rodinia-3.1.sm_30.ptx:29 skipping new declaration
GPGPU-Sim PTX: Warning %r251 was declared previous at nw-rodinia-3.1.sm_30.ptx:29 skipping new declaration
GPGPU-Sim PTX: Warning %r252 was declared previous at nw-rodinia-3.1.sm_30.ptx:29 skipping new declaration
GPGPU-Sim PTX: Warning %r253 was declared previous at nw-rodinia-3.1.sm_30.ptx:29 skipping new declaration
GPGPU-Sim PTX: Warning %r254 was declared previous at nw-rodinia-3.1.sm_30.ptx:29 skipping new declaration
GPGPU-Sim PTX: Warning %r255 was declared previous at nw-rodinia-3.1.sm_30.ptx:29 skipping new declaration
GPGPU-Sim PTX: Warning %r256 was declared previous at nw-rodinia-3.1.sm_30.ptx:29 skipping new declaration
GPGPU-Sim PTX: Warning %r257 was declared previous at nw-rodinia-3.1.sm_30.ptx:29 skipping new declaration
GPGPU-Sim PTX: Warning %r258 was declared previous at nw-rodinia-3.1.sm_30.ptx:29 skipping new declaration
GPGPU-Sim PTX: Warning %r259 was declared previous at nw-rodinia-3.1.sm_30.ptx:29 skipping new declaration
GPGPU-Sim PTX: Warning %r260 was declared previous at nw-rodinia-3.1.sm_30.ptx:29 skipping new declaration
GPGPU-Sim PTX: Warning %r261 was declared previous at nw-rodinia-3.1.sm_30.ptx:29 skipping new declaration
GPGPU-Sim PTX: Warning %r262 was declared previous at nw-rodinia-3.1.sm_30.ptx:29 skipping new declaration
GPGPU-Sim PTX: Warning %r263 was declared previous at nw-rodinia-3.1.sm_30.ptx:29 skipping new declaration
GPGPU-Sim PTX: Warning %r264 was declared previous at nw-rodinia-3.1.sm_30.ptx:29 skipping new declaration
GPGPU-Sim PTX: Warning %r265 was declared previous at nw-rodinia-3.1.sm_30.ptx:29 skipping new declaration
GPGPU-Sim PTX: Warning %r266 was declared previous at nw-rodinia-3.1.sm_30.ptx:29 skipping new declaration
GPGPU-Sim PTX: Warning %r267 was declared previous at nw-rodinia-3.1.sm_30.ptx:29 skipping new declaration
GPGPU-Sim PTX: Warning %r268 was declared previous at nw-rodinia-3.1.sm_30.ptx:29 skipping new declaration
GPGPU-Sim PTX: Warning %r269 was declared previous at nw-rodinia-3.1.sm_30.ptx:29 skipping new declaration
GPGPU-Sim PTX: Warning %r270 was declared previous at nw-rodinia-3.1.sm_30.ptx:29 skipping new declaration
GPGPU-Sim PTX: Warning %r271 was declared previous at nw-rodinia-3.1.sm_30.ptx:29 skipping new declaration
GPGPU-Sim PTX: Warning %r272 was declared previous at nw-rodinia-3.1.sm_30.ptx:29 skipping new declaration
GPGPU-Sim PTX: Warning %r273 was declared previous at nw-rodinia-3.1.sm_30.ptx:29 skipping new declaration
GPGPU-Sim PTX: Warning %r274 was declared previous at nw-rodinia-3.1.sm_30.ptx:29 skipping new declaration
GPGPU-Sim PTX: Warning %r275 was declared previous at nw-rodinia-3.1.sm_30.ptx:29 skipping new declaration
GPGPU-Sim PTX: Warning %r276 was declared previous at nw-rodinia-3.1.sm_30.ptx:29 skipping new declaration
GPGPU-Sim PTX: Warning %r277 was declared previous at nw-rodinia-3.1.sm_30.ptx:29 skipping new declaration
GPGPU-Sim PTX: Warning %r278 was declared previous at nw-rodinia-3.1.sm_30.ptx:29 skipping new declaration
GPGPU-Sim PTX: Warning %r279 was declared previous at nw-rodinia-3.1.sm_30.ptx:29 skipping new declaration
GPGPU-Sim PTX: Warning %r280 was declared previous at nw-rodinia-3.1.sm_30.ptx:29 skipping new declaration
GPGPU-Sim PTX: Warning %r281 was declared previous at nw-rodinia-3.1.sm_30.ptx:29 skipping new declaration
GPGPU-Sim PTX: Warning %r282 was declared previous at nw-rodinia-3.1.sm_30.ptx:29 skipping new declaration
GPGPU-Sim PTX: Warning %r283 was declared previous at nw-rodinia-3.1.sm_30.ptx:29 skipping new declaration
GPGPU-Sim PTX: Warning %r284 was declared previous at nw-rodinia-3.1.sm_30.ptx:29 skipping new declaration
GPGPU-Sim PTX: Warning %r285 was declared previous at nw-rodinia-3.1.sm_30.ptx:29 skipping new declaration
GPGPU-Sim PTX: Warning %r286 was declared previous at nw-rodinia-3.1.sm_30.ptx:29 skipping new declaration
GPGPU-Sim PTX: Warning %r287 was declared previous at nw-rodinia-3.1.sm_30.ptx:29 skipping new declaration
GPGPU-Sim PTX: Warning %r288 was declared previous at nw-rodinia-3.1.sm_30.ptx:29 skipping new declaration
GPGPU-Sim PTX: Warning %r289 was declared previous at nw-rodinia-3.1.sm_30.ptx:29 skipping new declaration
GPGPU-Sim PTX: Warning %r290 was declared previous at nw-rodinia-3.1.sm_30.ptx:29 skipping new declaration
GPGPU-Sim PTX: Warning %r291 was declared previous at nw-rodinia-3.1.sm_30.ptx:29 skipping new declaration
GPGPU-Sim PTX: Warning %r292 was declared previous at nw-rodinia-3.1.sm_30.ptx:29 skipping new declaration
GPGPU-Sim PTX: Warning %r293 was declared previous at nw-rodinia-3.1.sm_30.ptx:29 skipping new declaration
GPGPU-Sim PTX: Warning %r294 was declared previous at nw-rodinia-3.1.sm_30.ptx:29 skipping new declaration
GPGPU-Sim PTX: Warning %r295 was declared previous at nw-rodinia-3.1.sm_30.ptx:29 skipping new declaration
GPGPU-Sim PTX: Warning %r296 was declared previous at nw-rodinia-3.1.sm_30.ptx:29 skipping new declaration
GPGPU-Sim PTX: Warning %r297 was declared previous at nw-rodinia-3.1.sm_30.ptx:29 skipping new declaration
GPGPU-Sim PTX: Warning %r298 was declared previous at nw-rodinia-3.1.sm_30.ptx:29 skipping new declaration
GPGPU-Sim PTX: Warning %r299 was declared previous at nw-rodinia-3.1.sm_30.ptx:29 skipping new declaration
GPGPU-Sim PTX: Warning %r300 was declared previous at nw-rodinia-3.1.sm_30.ptx:29 skipping new declaration
GPGPU-Sim PTX: Warning %r301 was declared previous at nw-rodinia-3.1.sm_30.ptx:29 skipping new declaration
GPGPU-Sim PTX: Warning %r302 was declared previous at nw-rodinia-3.1.sm_30.ptx:29 skipping new declaration
GPGPU-Sim PTX: Warning %r303 was declared previous at nw-rodinia-3.1.sm_30.ptx:29 skipping new declaration
GPGPU-Sim PTX: Warning %r304 was declared previous at nw-rodinia-3.1.sm_30.ptx:29 skipping new declaration
GPGPU-Sim PTX: Warning %r305 was declared previous at nw-rodinia-3.1.sm_30.ptx:29 skipping new declaration
GPGPU-Sim PTX: Warning %r306 was declared previous at nw-rodinia-3.1.sm_30.ptx:29 skipping new declaration
GPGPU-Sim PTX: Warning %r307 was declared previous at nw-rodinia-3.1.sm_30.ptx:29 skipping new declaration
GPGPU-Sim PTX: Warning %r308 was declared previous at nw-rodinia-3.1.sm_30.ptx:29 skipping new declaration
GPGPU-Sim PTX: Warning %r309 was declared previous at nw-rodinia-3.1.sm_30.ptx:29 skipping new declaration
GPGPU-Sim PTX: Warning %r310 was declared previous at nw-rodinia-3.1.sm_30.ptx:29 skipping new declaration
GPGPU-Sim PTX: Warning %r311 was declared previous at nw-rodinia-3.1.sm_30.ptx:29 skipping new declaration
GPGPU-Sim PTX: Warning %r312 was declared previous at nw-rodinia-3.1.sm_30.ptx:29 skipping new declaration
GPGPU-Sim PTX: Warning %r313 was declared previous at nw-rodinia-3.1.sm_30.ptx:29 skipping new declaration
GPGPU-Sim PTX: Warning %r314 was declared previous at nw-rodinia-3.1.sm_30.ptx:29 skipping new declaration
GPGPU-Sim PTX: Warning %r315 was declared previous at nw-rodinia-3.1.sm_30.ptx:29 skipping new declaration
GPGPU-Sim PTX: Warning %r316 was declared previous at nw-rodinia-3.1.sm_30.ptx:29 skipping new declaration
GPGPU-Sim PTX: Warning %r317 was declared previous at nw-rodinia-3.1.sm_30.ptx:29 skipping new declaration
GPGPU-Sim PTX: Warning %r318 was declared previous at nw-rodinia-3.1.sm_30.ptx:29 skipping new declaration
GPGPU-Sim PTX: Warning %r319 was declared previous at nw-rodinia-3.1.sm_30.ptx:29 skipping new declaration
GPGPU-Sim PTX: Warning %r320 was declared previous at nw-rodinia-3.1.sm_30.ptx:29 skipping new declaration
GPGPU-Sim PTX: Warning %r321 was declared previous at nw-rodinia-3.1.sm_30.ptx:29 skipping new declaration
GPGPU-Sim PTX: Warning %r322 was declared previous at nw-rodinia-3.1.sm_30.ptx:29 skipping new declaration
GPGPU-Sim PTX: Warning %r323 was declared previous at nw-rodinia-3.1.sm_30.ptx:29 skipping new declaration
GPGPU-Sim PTX: Warning %r324 was declared previous at nw-rodinia-3.1.sm_30.ptx:29 skipping new declaration
GPGPU-Sim PTX: Warning %r325 was declared previous at nw-rodinia-3.1.sm_30.ptx:29 skipping new declaration
GPGPU-Sim PTX: Warning %r326 was declared previous at nw-rodinia-3.1.sm_30.ptx:29 skipping new declaration
GPGPU-Sim PTX: Warning %r327 was declared previous at nw-rodinia-3.1.sm_30.ptx:29 skipping new declaration
GPGPU-Sim PTX: Warning %r328 was declared previous at nw-rodinia-3.1.sm_30.ptx:29 skipping new declaration
GPGPU-Sim PTX: Warning %r329 was declared previous at nw-rodinia-3.1.sm_30.ptx:29 skipping new declaration
GPGPU-Sim PTX: Warning %r330 was declared previous at nw-rodinia-3.1.sm_30.ptx:29 skipping new declaration
GPGPU-Sim PTX: Warning %r331 was declared previous at nw-rodinia-3.1.sm_30.ptx:29 skipping new declaration
GPGPU-Sim PTX: Warning %r332 was declared previous at nw-rodinia-3.1.sm_30.ptx:29 skipping new declaration
GPGPU-Sim PTX: Warning %r333 was declared previous at nw-rodinia-3.1.sm_30.ptx:29 skipping new declaration
GPGPU-Sim PTX: Warning %r334 was declared previous at nw-rodinia-3.1.sm_30.ptx:29 skipping new declaration
GPGPU-Sim PTX: Warning %r335 was declared previous at nw-rodinia-3.1.sm_30.ptx:29 skipping new declaration
GPGPU-Sim PTX: Warning %r336 was declared previous at nw-rodinia-3.1.sm_30.ptx:29 skipping new declaration
GPGPU-Sim PTX: Warning %r337 was declared previous at nw-rodinia-3.1.sm_30.ptx:29 skipping new declaration
GPGPU-Sim PTX: Warning %r338 was declared previous at nw-rodinia-3.1.sm_30.ptx:29 skipping new declaration
GPGPU-Sim PTX: Warning %r339 was declared previous at nw-rodinia-3.1.sm_30.ptx:29 skipping new declaration
GPGPU-Sim PTX: Warning %r340 was declared previous at nw-rodinia-3.1.sm_30.ptx:29 skipping new declaration
GPGPU-Sim PTX: Warning %r341 was declared previous at nw-rodinia-3.1.sm_30.ptx:29 skipping new declaration
GPGPU-Sim PTX: Warning %r342 was declared previous at nw-rodinia-3.1.sm_30.ptx:29 skipping new declaration
GPGPU-Sim PTX: Warning %r343 was declared previous at nw-rodinia-3.1.sm_30.ptx:29 skipping new declaration
GPGPU-Sim PTX: Warning %r344 was declared previous at nw-rodinia-3.1.sm_30.ptx:29 skipping new declaration
GPGPU-Sim PTX: Warning %r345 was declared previous at nw-rodinia-3.1.sm_30.ptx:29 skipping new declaration
GPGPU-Sim PTX: Warning %r346 was declared previous at nw-rodinia-3.1.sm_30.ptx:29 skipping new declaration
GPGPU-Sim PTX: Warning %r347 was declared previous at nw-rodinia-3.1.sm_30.ptx:29 skipping new declaration
GPGPU-Sim PTX: Warning %r348 was declared previous at nw-rodinia-3.1.sm_30.ptx:29 skipping new declaration
GPGPU-Sim PTX: Warning %r349 was declared previous at nw-rodinia-3.1.sm_30.ptx:29 skipping new declaration
GPGPU-Sim PTX: Warning %r350 was declared previous at nw-rodinia-3.1.sm_30.ptx:29 skipping new declaration
GPGPU-Sim PTX: Warning %r351 was declared previous at nw-rodinia-3.1.sm_30.ptx:29 skipping new declaration
GPGPU-Sim PTX: Warning %r352 was declared previous at nw-rodinia-3.1.sm_30.ptx:29 skipping new declaration
GPGPU-Sim PTX: Warning %r353 was declared previous at nw-rodinia-3.1.sm_30.ptx:29 skipping new declaration
GPGPU-Sim PTX: Warning %r354 was declared previous at nw-rodinia-3.1.sm_30.ptx:29 skipping new declaration
GPGPU-Sim PTX: Warning %r355 was declared previous at nw-rodinia-3.1.sm_30.ptx:29 skipping new declaration
GPGPU-Sim PTX: Warning %r356 was declared previous at nw-rodinia-3.1.sm_30.ptx:29 skipping new declaration
GPGPU-Sim PTX: Warning %r357 was declared previous at nw-rodinia-3.1.sm_30.ptx:29 skipping new declaration
GPGPU-Sim PTX: Warning %r358 was declared previous at nw-rodinia-3.1.sm_30.ptx:29 skipping new declaration
GPGPU-Sim PTX: Warning %r359 was declared previous at nw-rodinia-3.1.sm_30.ptx:29 skipping new declaration
GPGPU-Sim PTX: Warning %r360 was declared previous at nw-rodinia-3.1.sm_30.ptx:29 skipping new declaration
GPGPU-Sim PTX: Warning %rd0 was declared previous at nw-rodinia-3.1.sm_30.ptx:30 skipping new declaration
GPGPU-Sim PTX: Warning %rd1 was declared previous at nw-rodinia-3.1.sm_30.ptx:30 skipping new declaration
GPGPU-Sim PTX: Warning %rd2 was declared previous at nw-rodinia-3.1.sm_30.ptx:30 skipping new declaration
GPGPU-Sim PTX: Warning %rd3 was declared previous at nw-rodinia-3.1.sm_30.ptx:30 skipping new declaration
GPGPU-Sim PTX: Warning %rd4 was declared previous at nw-rodinia-3.1.sm_30.ptx:30 skipping new declaration
GPGPU-Sim PTX: Warning %rd5 was declared previous at nw-rodinia-3.1.sm_30.ptx:30 skipping new declaration
GPGPU-Sim PTX: Warning %rd6 was declared previous at nw-rodinia-3.1.sm_30.ptx:30 skipping new declaration
GPGPU-Sim PTX: Warning %rd7 was declared previous at nw-rodinia-3.1.sm_30.ptx:30 skipping new declaration
GPGPU-Sim PTX: Warning %rd8 was declared previous at nw-rodinia-3.1.sm_30.ptx:30 skipping new declaration
GPGPU-Sim PTX: Warning %rd9 was declared previous at nw-rodinia-3.1.sm_30.ptx:30 skipping new declaration
GPGPU-Sim PTX: Warning %rd10 was declared previous at nw-rodinia-3.1.sm_30.ptx:30 skipping new declaration
GPGPU-Sim PTX: Warning %rd11 was declared previous at nw-rodinia-3.1.sm_30.ptx:30 skipping new declaration
GPGPU-Sim PTX: Warning %rd12 was declared previous at nw-rodinia-3.1.sm_30.ptx:30 skipping new declaration
GPGPU-Sim PTX: Warning %rd13 was declared previous at nw-rodinia-3.1.sm_30.ptx:30 skipping new declaration
GPGPU-Sim PTX: Warning %rd14 was declared previous at nw-rodinia-3.1.sm_30.ptx:30 skipping new declaration
GPGPU-Sim PTX: Warning %rd15 was declared previous at nw-rodinia-3.1.sm_30.ptx:30 skipping new declaration
GPGPU-Sim PTX: Warning %rd16 was declared previous at nw-rodinia-3.1.sm_30.ptx:30 skipping new declaration
GPGPU-Sim PTX: Warning %rd17 was declared previous at nw-rodinia-3.1.sm_30.ptx:30 skipping new declaration
GPGPU-Sim PTX: Warning %rd18 was declared previous at nw-rodinia-3.1.sm_30.ptx:30 skipping new declaration
GPGPU-Sim PTX: Warning %rd19 was declared previous at nw-rodinia-3.1.sm_30.ptx:30 skipping new declaration
GPGPU-Sim PTX: Warning %rd20 was declared previous at nw-rodinia-3.1.sm_30.ptx:30 skipping new declaration
GPGPU-Sim PTX: Warning %rd21 was declared previous at nw-rodinia-3.1.sm_30.ptx:30 skipping new declaration
GPGPU-Sim PTX: Warning %rd22 was declared previous at nw-rodinia-3.1.sm_30.ptx:30 skipping new declaration
GPGPU-Sim PTX: Warning %rd23 was declared previous at nw-rodinia-3.1.sm_30.ptx:30 skipping new declaration
GPGPU-Sim PTX: Warning %rd24 was declared previous at nw-rodinia-3.1.sm_30.ptx:30 skipping new declaration
GPGPU-Sim PTX: Warning %rd25 was declared previous at nw-rodinia-3.1.sm_30.ptx:30 skipping new declaration
GPGPU-Sim PTX: Warning %rd26 was declared previous at nw-rodinia-3.1.sm_30.ptx:30 skipping new declaration
GPGPU-Sim PTX: Warning %rd27 was declared previous at nw-rodinia-3.1.sm_30.ptx:30 skipping new declaration
GPGPU-Sim PTX: Warning %rd28 was declared previous at nw-rodinia-3.1.sm_30.ptx:30 skipping new declaration
GPGPU-Sim PTX: Warning %rd29 was declared previous at nw-rodinia-3.1.sm_30.ptx:30 skipping new declaration
GPGPU-Sim PTX: Warning %rd30 was declared previous at nw-rodinia-3.1.sm_30.ptx:30 skipping new declaration
GPGPU-Sim PTX: Warning %rd31 was declared previous at nw-rodinia-3.1.sm_30.ptx:30 skipping new declaration
GPGPU-Sim PTX: Warning %rd32 was declared previous at nw-rodinia-3.1.sm_30.ptx:30 skipping new declaration
GPGPU-Sim PTX: Warning %rd33 was declared previous at nw-rodinia-3.1.sm_30.ptx:30 skipping new declaration
GPGPU-Sim PTX: Warning %rd34 was declared previous at nw-rodinia-3.1.sm_30.ptx:30 skipping new declaration
GPGPU-Sim PTX: Warning %rd35 was declared previous at nw-rodinia-3.1.sm_30.ptx:30 skipping new declaration
GPGPU-Sim PTX: Warning %rd36 was declared previous at nw-rodinia-3.1.sm_30.ptx:30 skipping new declaration
GPGPU-Sim PTX: Warning %rd37 was declared previous at nw-rodinia-3.1.sm_30.ptx:30 skipping new declaration
GPGPU-Sim PTX: Warning %rd38 was declared previous at nw-rodinia-3.1.sm_30.ptx:30 skipping new declaration
GPGPU-Sim PTX: Warning %rd39 was declared previous at nw-rodinia-3.1.sm_30.ptx:30 skipping new declaration
GPGPU-Sim PTX: Warning %rd40 was declared previous at nw-rodinia-3.1.sm_30.ptx:30 skipping new declaration
GPGPU-Sim PTX: Warning %rd41 was declared previous at nw-rodinia-3.1.sm_30.ptx:30 skipping new declaration
GPGPU-Sim PTX: Warning %rd42 was declared previous at nw-rodinia-3.1.sm_30.ptx:30 skipping new declaration
GPGPU-Sim PTX: Warning %rd43 was declared previous at nw-rodinia-3.1.sm_30.ptx:30 skipping new declaration
GPGPU-Sim PTX: Warning %rd44 was declared previous at nw-rodinia-3.1.sm_30.ptx:30 skipping new declaration
GPGPU-Sim PTX: Warning %rd45 was declared previous at nw-rodinia-3.1.sm_30.ptx:30 skipping new declaration
GPGPU-Sim PTX: Warning %rd46 was declared previous at nw-rodinia-3.1.sm_30.ptx:30 skipping new declaration
GPGPU-Sim PTX: Warning %rd47 was declared previous at nw-rodinia-3.1.sm_30.ptx:30 skipping new declaration
GPGPU-Sim PTX: Warning %rd48 was declared previous at nw-rodinia-3.1.sm_30.ptx:30 skipping new declaration
GPGPU-Sim PTX: allocating shared region for "_Z20needle_cuda_shared_1PiS_iiii$__cuda_local_var_16754_31_non_const_temp" from 0x900 to 0xd84 (shared memory space)
GPGPU-Sim PTX: allocating shared region for "_Z20needle_cuda_shared_1PiS_iiii$__cuda_local_var_16755_31_non_const_ref" from 0xe00 to 0x1200 (shared memory space)
GPGPU-Sim PTX: instruction assembly for function '_Z20needle_cuda_shared_1PiS_iiii'...   done.
GPGPU-Sim PTX: Warning %p0 was declared previous at nw-rodinia-3.1.sm_30.ptx:693 skipping new declaration
GPGPU-Sim PTX: Warning %p1 was declared previous at nw-rodinia-3.1.sm_30.ptx:693 skipping new declaration
GPGPU-Sim PTX: Warning %p2 was declared previous at nw-rodinia-3.1.sm_30.ptx:693 skipping new declaration
GPGPU-Sim PTX: Warning %p3 was declared previous at nw-rodinia-3.1.sm_30.ptx:693 skipping new declaration
GPGPU-Sim PTX: Warning %p4 was declared previous at nw-rodinia-3.1.sm_30.ptx:693 skipping new declaration
GPGPU-Sim PTX: Warning %p5 was declared previous at nw-rodinia-3.1.sm_30.ptx:693 skipping new declaration
GPGPU-Sim PTX: Warning %p6 was declared previous at nw-rodinia-3.1.sm_30.ptx:693 skipping new declaration
GPGPU-Sim PTX: Warning %p7 was declared previous at nw-rodinia-3.1.sm_30.ptx:693 skipping new declaration
GPGPU-Sim PTX: Warning %p8 was declared previous at nw-rodinia-3.1.sm_30.ptx:693 skipping new declaration
GPGPU-Sim PTX: Warning %p9 was declared previous at nw-rodinia-3.1.sm_30.ptx:693 skipping new declaration
GPGPU-Sim PTX: Warning %p10 was declared previous at nw-rodinia-3.1.sm_30.ptx:693 skipping new declaration
GPGPU-Sim PTX: Warning %p11 was declared previous at nw-rodinia-3.1.sm_30.ptx:693 skipping new declaration
GPGPU-Sim PTX: Warning %p12 was declared previous at nw-rodinia-3.1.sm_30.ptx:693 skipping new declaration
GPGPU-Sim PTX: Warning %p13 was declared previous at nw-rodinia-3.1.sm_30.ptx:693 skipping new declaration
GPGPU-Sim PTX: Warning %p14 was declared previous at nw-rodinia-3.1.sm_30.ptx:693 skipping new declaration
GPGPU-Sim PTX: Warning %p15 was declared previous at nw-rodinia-3.1.sm_30.ptx:693 skipping new declaration
GPGPU-Sim PTX: Warning %p16 was declared previous at nw-rodinia-3.1.sm_30.ptx:693 skipping new declaration
GPGPU-Sim PTX: Warning %p17 was declared previous at nw-rodinia-3.1.sm_30.ptx:693 skipping new declaration
GPGPU-Sim PTX: Warning %p18 was declared previous at nw-rodinia-3.1.sm_30.ptx:693 skipping new declaration
GPGPU-Sim PTX: Warning %p19 was declared previous at nw-rodinia-3.1.sm_30.ptx:693 skipping new declaration
GPGPU-Sim PTX: Warning %p20 was declared previous at nw-rodinia-3.1.sm_30.ptx:693 skipping new declaration
GPGPU-Sim PTX: Warning %p21 was declared previous at nw-rodinia-3.1.sm_30.ptx:693 skipping new declaration
GPGPU-Sim PTX: Warning %p22 was declared previous at nw-rodinia-3.1.sm_30.ptx:693 skipping new declaration
GPGPU-Sim PTX: Warning %p23 was declared previous at nw-rodinia-3.1.sm_30.ptx:693 skipping new declaration
GPGPU-Sim PTX: Warning %p24 was declared previous at nw-rodinia-3.1.sm_30.ptx:693 skipping new declaration
GPGPU-Sim PTX: Warning %p25 was declared previous at nw-rodinia-3.1.sm_30.ptx:693 skipping new declaration
GPGPU-Sim PTX: Warning %p26 was declared previous at nw-rodinia-3.1.sm_30.ptx:693 skipping new declaration
GPGPU-Sim PTX: Warning %p27 was declared previous at nw-rodinia-3.1.sm_30.ptx:693 skipping new declaration
GPGPU-Sim PTX: Warning %p28 was declared previous at nw-rodinia-3.1.sm_30.ptx:693 skipping new declaration
GPGPU-Sim PTX: Warning %p29 was declared previous at nw-rodinia-3.1.sm_30.ptx:693 skipping new declaration
GPGPU-Sim PTX: Warning %p30 was declared previous at nw-rodinia-3.1.sm_30.ptx:693 skipping new declaration
GPGPU-Sim PTX: Warning %p31 was declared previous at nw-rodinia-3.1.sm_30.ptx:693 skipping new declaration
GPGPU-Sim PTX: Warning %p32 was declared previous at nw-rodinia-3.1.sm_30.ptx:693 skipping new declaration
GPGPU-Sim PTX: Warning %r0 was declared previous at nw-rodinia-3.1.sm_30.ptx:694 skipping new declaration
GPGPU-Sim PTX: Warning %r1 was declared previous at nw-rodinia-3.1.sm_30.ptx:694 skipping new declaration
GPGPU-Sim PTX: Warning %r2 was declared previous at nw-rodinia-3.1.sm_30.ptx:694 skipping new declaration
GPGPU-Sim PTX: Warning %r3 was declared previous at nw-rodinia-3.1.sm_30.ptx:694 skipping new declaration
[...]
GPGPU-Sim PTX: Warning %r329 was declared previous at nw-rodinia-3.1.sm_30.ptx:694 skipping new declaration
GPGPU-Sim PTX: Warning %r330 was declared previous at nw-rodinia-3.1.sm_30.ptx:694 skipping new declaration
GPGPU-Sim PTX: Warning %r331 was declared previous at nw-rodinia-3.1.sm_30.ptx:694 skipping new declaration
GPGPU-Sim PTX: Warning %r332 was declared previous at nw-rodinia-3.1.sm_30.ptx:694 skipping new declaration
GPGPU-Sim PTX: Warning %r333 was declared previous at nw-rodinia-3.1.sm_30.ptx:694 skipping new declaration
GPGPU-Sim PTX: Warning %r334 was declared previous at nw-rodinia-3.1.sm_30.ptx:694 skipping new declaration
GPGPU-Sim PTX: Warning %r335 was declared previous at nw-rodinia-3.1.sm_30.ptx:694 skipping new declaration
GPGPU-Sim PTX: Warning %r336 was declared previous at nw-rodinia-3.1.sm_30.ptx:694 skipping new declaration
GPGPU-Sim PTX: Warning %r337 was declared previous at nw-rodinia-3.1.sm_30.ptx:694 skipping new declaration
GPGPU-Sim PTX: Warning %r338 was declared previous at nw-rodinia-3.1.sm_30.ptx:694 skipping new declaration
GPGPU-Sim PTX: Warning %r339 was declared previous at nw-rodinia-3.1.sm_30.ptx:694 skipping new declaration
GPGPU-Sim PTX: Warning %r340 was declared previous at nw-rodinia-3.1.sm_30.ptx:694 skipping new declaration
GPGPU-Sim PTX: Warning %r341 was declared previous at nw-rodinia-3.1.sm_30.ptx:694 skipping new declaration
GPGPU-Sim PTX: Warning %r342 was declared previous at nw-rodinia-3.1.sm_30.ptx:694 skipping new declaration
GPGPU-Sim PTX: Warning %r343 was declared previous at nw-rodinia-3.1.sm_30.ptx:694 skipping new declaration
GPGPU-Sim PTX: Warning %r344 was declared previous at nw-rodinia-3.1.sm_30.ptx:694 skipping new declaration
GPGPU-Sim PTX: Warning %r345 was declared previous at nw-rodinia-3.1.sm_30.ptx:694 skipping new declaration
GPGPU-Sim PTX: Warning %r346 was declared previous at nw-rodinia-3.1.sm_30.ptx:694 skipping new declaration
GPGPU-Sim PTX: Warning %r347 was declared previous at nw-rodinia-3.1.sm_30.ptx:694 skipping new declaration
GPGPU-Sim PTX: Warning %r348 was declared previous at nw-rodinia-3.1.sm_30.ptx:694 skipping new declaration
GPGPU-Sim PTX: Warning %r349 was declared previous at nw-rodinia-3.1.sm_30.ptx:694 skipping new declaration
GPGPU-Sim PTX: Warning %r350 was declared previous at nw-rodinia-3.1.sm_30.ptx:694 skipping new declaration
GPGPU-Sim PTX: Warning %r351 was declared previous at nw-rodinia-3.1.sm_30.ptx:694 skipping new declaration
GPGPU-Sim PTX: Warning %r352 was declared previous at nw-rodinia-3.1.sm_30.ptx:694 skipping new declaration
GPGPU-Sim PTX: Warning %r353 was declared previous at nw-rodinia-3.1.sm_30.ptx:694 skipping new declaration
GPGPU-Sim PTX: Warning %r354 was declared previous at nw-rodinia-3.1.sm_30.ptx:694 skipping new declaration
GPGPU-Sim PTX: Warning %r355 was declared previous at nw-rodinia-3.1.sm_30.ptx:694 skipping new declaration
GPGPU-Sim PTX: Warning %r356 was declared previous at nw-rodinia-3.1.sm_30.ptx:694 skipping new declaration
GPGPU-Sim PTX: Warning %r357 was declared previous at nw-rodinia-3.1.sm_30.ptx:694 skipping new declaration
GPGPU-Sim PTX: Warning %r358 was declared previous at nw-rodinia-3.1.sm_30.ptx:694 skipping new declaration
GPGPU-Sim PTX: Warning %r359 was declared previous at nw-rodinia-3.1.sm_30.ptx:694 skipping new declaration
GPGPU-Sim PTX: Warning %r360 was declared previous at nw-rodinia-3.1.sm_30.ptx:694 skipping new declaration
GPGPU-Sim PTX: Warning %r361 was declared previous at nw-rodinia-3.1.sm_30.ptx:694 skipping new declaration
GPGPU-Sim PTX: Warning %r362 was declared previous at nw-rodinia-3.1.sm_30.ptx:694 skipping new declaration
GPGPU-Sim PTX: Warning %rd0 was declared previous at nw-rodinia-3.1.sm_30.ptx:695 skipping new declaration
GPGPU-Sim PTX: Warning %rd1 was declared previous at nw-rodinia-3.1.sm_30.ptx:695 skipping new declaration
GPGPU-Sim PTX: Warning %rd2 was declared previous at nw-rodinia-3.1.sm_30.ptx:695 skipping new declaration
GPGPU-Sim PTX: Warning %rd3 was declared previous at nw-rodinia-3.1.sm_30.ptx:695 skipping new declaration
GPGPU-Sim PTX: Warning %rd4 was declared previous at nw-rodinia-3.1.sm_30.ptx:695 skipping new declaration
GPGPU-Sim PTX: Warning %rd5 was declared previous at nw-rodinia-3.1.sm_30.ptx:695 skipping new declaration
GPGPU-Sim PTX: Warning %rd6 was declared previous at nw-rodinia-3.1.sm_30.ptx:695 skipping new declaration
GPGPU-Sim PTX: Warning %rd7 was declared previous at nw-rodinia-3.1.sm_30.ptx:695 skipping new declaration
GPGPU-Sim PTX: Warning %rd8 was declared previous at nw-rodinia-3.1.sm_30.ptx:695 skipping new declaration
GPGPU-Sim PTX: Warning %rd9 was declared previous at nw-rodinia-3.1.sm_30.ptx:695 skipping new declaration
GPGPU-Sim PTX: Warning %rd10 was declared previous at nw-rodinia-3.1.sm_30.ptx:695 skipping new declaration
GPGPU-Sim PTX: Warning %rd11 was declared previous at nw-rodinia-3.1.sm_30.ptx:695 skipping new declaration
GPGPU-Sim PTX: Warning %rd12 was declared previous at nw-rodinia-3.1.sm_30.ptx:695 skipping new declaration
GPGPU-Sim PTX: Warning %rd13 was declared previous at nw-rodinia-3.1.sm_30.ptx:695 skipping new declaration
GPGPU-Sim PTX: Warning %rd14 was declared previous at nw-rodinia-3.1.sm_30.ptx:695 skipping new declaration
GPGPU-Sim PTX: Warning %rd15 was declared previous at nw-rodinia-3.1.sm_30.ptx:695 skipping new declaration
GPGPU-Sim PTX: Warning %rd16 was declared previous at nw-rodinia-3.1.sm_30.ptx:695 skipping new declaration
GPGPU-Sim PTX: Warning %rd17 was declared previous at nw-rodinia-3.1.sm_30.ptx:695 skipping new declaration
GPGPU-Sim PTX: Warning %rd18 was declared previous at nw-rodinia-3.1.sm_30.ptx:695 skipping new declaration
GPGPU-Sim PTX: Warning %rd19 was declared previous at nw-rodinia-3.1.sm_30.ptx:695 skipping new declaration
GPGPU-Sim PTX: Warning %rd20 was declared previous at nw-rodinia-3.1.sm_30.ptx:695 skipping new declaration
GPGPU-Sim PTX: Warning %rd21 was declared previous at nw-rodinia-3.1.sm_30.ptx:695 skipping new declaration
GPGPU-Sim PTX: Warning %rd22 was declared previous at nw-rodinia-3.1.sm_30.ptx:695 skipping new declaration
GPGPU-Sim PTX: Warning %rd23 was declared previous at nw-rodinia-3.1.sm_30.ptx:695 skipping new declaration
GPGPU-Sim PTX: Warning %rd24 was declared previous at nw-rodinia-3.1.sm_30.ptx:695 skipping new declaration
GPGPU-Sim PTX: Warning %rd25 was declared previous at nw-rodinia-3.1.sm_30.ptx:695 skipping new declaration
GPGPU-Sim PTX: Warning %rd26 was declared previous at nw-rodinia-3.1.sm_30.ptx:695 skipping new declaration
GPGPU-Sim PTX: Warning %rd27 was declared previous at nw-rodinia-3.1.sm_30.ptx:695 skipping new declaration
GPGPU-Sim PTX: Warning %rd28 was declared previous at nw-rodinia-3.1.sm_30.ptx:695 skipping new declaration
GPGPU-Sim PTX: Warning %rd29 was declared previous at nw-rodinia-3.1.sm_30.ptx:695 skipping new declaration
GPGPU-Sim PTX: Warning %rd30 was declared previous at nw-rodinia-3.1.sm_30.ptx:695 skipping new declaration
GPGPU-Sim PTX: Warning %rd31 was declared previous at nw-rodinia-3.1.sm_30.ptx:695 skipping new declaration
GPGPU-Sim PTX: Warning %rd32 was declared previous at nw-rodinia-3.1.sm_30.ptx:695 skipping new declaration
GPGPU-Sim PTX: Warning %rd33 was declared previous at nw-rodinia-3.1.sm_30.ptx:695 skipping new declaration
GPGPU-Sim PTX: Warning %rd34 was declared previous at nw-rodinia-3.1.sm_30.ptx:695 skipping new declaration
GPGPU-Sim PTX: Warning %rd35 was declared previous at nw-rodinia-3.1.sm_30.ptx:695 skipping new declaration
GPGPU-Sim PTX: Warning %rd36 was declared previous at nw-rodinia-3.1.sm_30.ptx:695 skipping new declaration
GPGPU-Sim PTX: Warning %rd37 was declared previous at nw-rodinia-3.1.sm_30.ptx:695 skipping new declaration
GPGPU-Sim PTX: Warning %rd38 was declared previous at nw-rodinia-3.1.sm_30.ptx:695 skipping new declaration
GPGPU-Sim PTX: Warning %rd39 was declared previous at nw-rodinia-3.1.sm_30.ptx:695 skipping new declaration
GPGPU-Sim PTX: Warning %rd40 was declared previous at nw-rodinia-3.1.sm_30.ptx:695 skipping new declaration
GPGPU-Sim PTX: Warning %rd41 was declared previous at nw-rodinia-3.1.sm_30.ptx:695 skipping new declaration
GPGPU-Sim PTX: Warning %rd42 was declared previous at nw-rodinia-3.1.sm_30.ptx:695 skipping new declaration
GPGPU-Sim PTX: Warning %rd43 was declared previous at nw-rodinia-3.1.sm_30.ptx:695 skipping new declaration
GPGPU-Sim PTX: Warning %rd44 was declared previous at nw-rodinia-3.1.sm_30.ptx:695 skipping new declaration
GPGPU-Sim PTX: Warning %rd45 was declared previous at nw-rodinia-3.1.sm_30.ptx:695 skipping new declaration
GPGPU-Sim PTX: Warning %rd46 was declared previous at nw-rodinia-3.1.sm_30.ptx:695 skipping new declaration
GPGPU-Sim PTX: Warning %rd47 was declared previous at nw-rodinia-3.1.sm_30.ptx:695 skipping new declaration
GPGPU-Sim PTX: Warning %rd48 was declared previous at nw-rodinia-3.1.sm_30.ptx:695 skipping new declaration
GPGPU-Sim PTX: allocating shared region for "_Z20needle_cuda_shared_2PiS_iiii$__cuda_local_var_17943_31_non_const_temp" from 0x2400 to 0x2884 (shared memory space)
GPGPU-Sim PTX: allocating shared region for "_Z20needle_cuda_shared_2PiS_iiii$__cuda_local_var_17944_31_non_const_ref" from 0x2900 to 0x2d00 (shared memory space)
GPGPU-Sim PTX: instruction assembly for function '_Z20needle_cuda_shared_2PiS_iiii'...   done.
GPGPU-Sim PTX: finished parsing EMBEDDED .ptx file nw-rodinia-3.6.sm_70.ptx
GPGPU-Sim PTX: loading globals with explicit initializers... 
GPGPU-Sim PTX: finished loading globals (0 bytes total).
GPGPU-Sim PTX: loading constants with explicit initializers...  done.
GPGPU-Sim PTX: Loading PTXInfo from nw-rodinia-3.1.sm_30.ptx
GPGPU-Sim PTX: Kernel '_Z20needle_cuda_shared_2PiS_iiii' : regs=32, lmem=0, smem=2180, cmem=352
GPGPU-Sim PTX: Kernel '_Z20needle_cuda_shared_1PiS_iiii' : regs=40, lmem=0, smem=2180, cmem=352
GPGPU-Sim PTX: Loading PTXInfo from nw-rodinia-3.2.sm_35.ptx
GPGPU-Sim PTX: Kernel '_Z20needle_cuda_shared_2PiS_iiii' : regs=32, lmem=0, smem=2180, cmem=352
GPGPU-Sim PTX: Kernel '_Z20needle_cuda_shared_1PiS_iiii' : regs=40, lmem=0, smem=2180, cmem=352
GPGPU-Sim PTX: Loading PTXInfo from nw-rodinia-3.3.sm_50.ptx
GPGPU-Sim PTX: Kernel '_Z20needle_cuda_shared_2PiS_iiii' : regs=32, lmem=0, smem=2180, cmem=352
GPGPU-Sim PTX: Kernel '_Z20needle_cuda_shared_1PiS_iiii' : regs=32, lmem=0, smem=2180, cmem=352
GPGPU-Sim PTX: Loading PTXInfo from nw-rodinia-3.4.sm_60.ptx
GPGPU-Sim PTX: Kernel '_Z20needle_cuda_shared_2PiS_iiii' : regs=32, lmem=0, smem=2180, cmem=352
GPGPU-Sim PTX: Kernel '_Z20needle_cuda_shared_1PiS_iiii' : regs=32, lmem=0, smem=2180, cmem=352
GPGPU-Sim PTX: Loading PTXInfo from nw-rodinia-3.5.sm_62.ptx
GPGPU-Sim PTX: Kernel '_Z20needle_cuda_shared_2PiS_iiii' : regs=32, lmem=0, smem=2180, cmem=352
GPGPU-Sim PTX: Kernel '_Z20needle_cuda_shared_1PiS_iiii' : regs=32, lmem=0, smem=2180, cmem=352
GPGPU-Sim PTX: Loading PTXInfo from nw-rodinia-3.6.sm_70.ptx
GPGPU-Sim PTX: Kernel '_Z20needle_cuda_shared_2PiS_iiii' : regs=32, lmem=0, smem=2180, cmem=384
GPGPU-Sim PTX: Kernel '_Z20needle_cuda_shared_1PiS_iiii' : regs=32, lmem=0, smem=2180, cmem=384
GPGPU-Sim PTX: __cudaRegisterFunction _Z20needle_cuda_shared_1PiS_iiii : hostFun 0x0x400e60, fat_cubin_handle = 1
WG size of kernel = 16 
Start Needleman-Wunsch
Processing top-left matrix
GPGPU-Sim PTX: Setting up arguments for 8 bytes starting at 0x7ffe36561888..
GPGPU-Sim PTX: Setting up arguments for 8 bytes starting at 0x7ffe36561880..
GPGPU-Sim PTX: Setting up arguments for 4 bytes starting at 0x7ffe3656187c..
GPGPU-Sim PTX: Setting up arguments for 4 bytes starting at 0x7ffe36561878..
GPGPU-Sim PTX: Setting up arguments for 4 bytes starting at 0x7ffe36561874..
GPGPU-Sim PTX: Setting up arguments for 4 bytes starting at 0x7ffe36561870..

GPGPU-Sim PTX: cudaLaunch for 0x0x400e60 (mode=performance simulation) on stream 0
GPGPU-Sim PTX: finding reconvergence points for '_Z20needle_cuda_shared_1PiS_iiii'...
GPGPU-Sim PTX: Finding dominators for '_Z20needle_cuda_shared_1PiS_iiii'...
GPGPU-Sim PTX: Finding immediate dominators for '_Z20needle_cuda_shared_1PiS_iiii'...
GPGPU-Sim PTX: Finding postdominators for '_Z20needle_cuda_shared_1PiS_iiii'...
GPGPU-Sim PTX: Finding immediate postdominators for '_Z20needle_cuda_shared_1PiS_iiii'...
GPGPU-Sim PTX: pre-decoding instructions for '_Z20needle_cuda_shared_1PiS_iiii'...
GPGPU-Sim PTX: reconvergence points for _Z20needle_cuda_shared_1PiS_iiii...
GPGPU-Sim PTX:  1 (potential) branch divergence @  PC=0xac90 (nw-rodinia-3.6.sm_70.ptx:53) @%p16 bra BB0_2;
GPGPU-Sim PTX:    immediate post dominator      @  PC=0xacb8 (nw-rodinia-3.6.sm_70.ptx:61) cvta.to.global.u64 %rd6, %rd2;
GPGPU-Sim PTX:  2 (potential) branch divergence @  PC=0xaf58 (nw-rodinia-3.6.sm_70.ptx:145) @%p17 bra BB0_4;
GPGPU-Sim PTX:    immediate post dominator      @  PC=0xafb0 (nw-rodinia-3.6.sm_70.ptx:159) bar.sync 0;
GPGPU-Sim PTX:  3 (potential) branch divergence @  PC=0xafc0 (nw-rodinia-3.6.sm_70.ptx:161) @%p18 bra BB0_6;
GPGPU-Sim PTX:    immediate post dominator      @  PC=0xb018 (nw-rodinia-3.6.sm_70.ptx:175) bar.sync 0;
GPGPU-Sim PTX:  4 (potential) branch divergence @  PC=0xb028 (nw-rodinia-3.6.sm_70.ptx:177) @%p19 bra BB0_8;
GPGPU-Sim PTX:    immediate post dominator      @  PC=0xb080 (nw-rodinia-3.6.sm_70.ptx:191) bar.sync 0;
GPGPU-Sim PTX:  5 (potential) branch divergence @  PC=0xb090 (nw-rodinia-3.6.sm_70.ptx:193) @%p20 bra BB0_10;
GPGPU-Sim PTX:    immediate post dominator      @  PC=0xb0e8 (nw-rodinia-3.6.sm_70.ptx:207) bar.sync 0;
GPGPU-Sim PTX:  6 (potential) branch divergence @  PC=0xb0f8 (nw-rodinia-3.6.sm_70.ptx:209) @%p21 bra BB0_12;
GPGPU-Sim PTX:    immediate post dominator      @  PC=0xb150 (nw-rodinia-3.6.sm_70.ptx:223) bar.sync 0;
GPGPU-Sim PTX:  7 (potential) branch divergence @  PC=0xb160 (nw-rodinia-3.6.sm_70.ptx:225) @%p22 bra BB0_14;
GPGPU-Sim PTX:    immediate post dominator      @  PC=0xb1b8 (nw-rodinia-3.6.sm_70.ptx:239) bar.sync 0;
GPGPU-Sim PTX:  8 (potential) branch divergence @  PC=0xb1c8 (nw-rodinia-3.6.sm_70.ptx:241) @%p23 bra BB0_16;
GPGPU-Sim PTX:    immediate post dominator      @  PC=0xb220 (nw-rodinia-3.6.sm_70.ptx:255) bar.sync 0;
GPGPU-Sim PTX:  9 (potential) branch divergence @  PC=0xb230 (nw-rodinia-3.6.sm_70.ptx:257) @%p24 bra BB0_18;
GPGPU-Sim PTX:    immediate post dominator      @  PC=0xb288 (nw-rodinia-3.6.sm_70.ptx:271) bar.sync 0;
GPGPU-Sim PTX: 10 (potential) branch divergence @  PC=0xb298 (nw-rodinia-3.6.sm_70.ptx:273) @%p25 bra BB0_20;
GPGPU-Sim PTX:    immediate post dominator      @  PC=0xb2f0 (nw-rodinia-3.6.sm_70.ptx:287) bar.sync 0;
GPGPU-Sim PTX: 11 (potential) branch divergence @  PC=0xb300 (nw-rodinia-3.6.sm_70.ptx:289) @%p26 bra BB0_22;
GPGPU-Sim PTX:    immediate post dominator      @  PC=0xb358 (nw-rodinia-3.6.sm_70.ptx:303) bar.sync 0;
GPGPU-Sim PTX: 12 (potential) branch divergence @  PC=0xb368 (nw-rodinia-3.6.sm_70.ptx:305) @%p27 bra BB0_24;
GPGPU-Sim PTX:    immediate post dominator      @  PC=0xb3c0 (nw-rodinia-3.6.sm_70.ptx:319) bar.sync 0;
GPGPU-Sim PTX: 13 (potential) branch divergence @  PC=0xb3d0 (nw-rodinia-3.6.sm_70.ptx:321) @%p28 bra BB0_26;
GPGPU-Sim PTX:    immediate post dominator      @  PC=0xb428 (nw-rodinia-3.6.sm_70.ptx:335) bar.sync 0;
GPGPU-Sim PTX: 14 (potential) branch divergence @  PC=0xb438 (nw-rodinia-3.6.sm_70.ptx:337) @%p29 bra BB0_28;
GPGPU-Sim PTX:    immediate post dominator      @  PC=0xb490 (nw-rodinia-3.6.sm_70.ptx:351) bar.sync 0;
GPGPU-Sim PTX: 15 (potential) branch divergence @  PC=0xb4a0 (nw-rodinia-3.6.sm_70.ptx:353) @%p30 bra BB0_30;
GPGPU-Sim PTX:    immediate post dominator      @  PC=0xb4f8 (nw-rodinia-3.6.sm_70.ptx:367) bar.sync 0;
GPGPU-Sim PTX: 16 (potential) branch divergence @  PC=0xb508 (nw-rodinia-3.6.sm_70.ptx:369) @%p31 bra BB0_32;
GPGPU-Sim PTX:    immediate post dominator      @  PC=0xb560 (nw-rodinia-3.6.sm_70.ptx:383) bar.sync 0;
GPGPU-Sim PTX: 17 (potential) branch divergence @  PC=0xb570 (nw-rodinia-3.6.sm_70.ptx:385) @%p32 bra BB0_34;
GPGPU-Sim PTX:    immediate post dominator      @  PC=0xb5c8 (nw-rodinia-3.6.sm_70.ptx:399) bar.sync 0;
GPGPU-Sim PTX: 18 (potential) branch divergence @  PC=0xb5d0 (nw-rodinia-3.6.sm_70.ptx:400) @%p31 bra BB0_36;
GPGPU-Sim PTX:    immediate post dominator      @  PC=0xb628 (nw-rodinia-3.6.sm_70.ptx:414) bar.sync 0;
GPGPU-Sim PTX: 19 (potential) branch divergence @  PC=0xb630 (nw-rodinia-3.6.sm_70.ptx:415) @%p30 bra BB0_38;
GPGPU-Sim PTX:    immediate post dominator      @  PC=0xb688 (nw-rodinia-3.6.sm_70.ptx:429) bar.sync 0;
GPGPU-Sim PTX: 20 (potential) branch divergence @  PC=0xb690 (nw-rodinia-3.6.sm_70.ptx:430) @%p29 bra BB0_40;
GPGPU-Sim PTX:    immediate post dominator      @  PC=0xb6e8 (nw-rodinia-3.6.sm_70.ptx:444) bar.sync 0;
GPGPU-Sim PTX: 21 (potential) branch divergence @  PC=0xb6f0 (nw-rodinia-3.6.sm_70.ptx:445) @%p28 bra BB0_42;
GPGPU-Sim PTX:    immediate post dominator      @  PC=0xb748 (nw-rodinia-3.6.sm_70.ptx:459) bar.sync 0;
GPGPU-Sim PTX: 22 (potential) branch divergence @  PC=0xb750 (nw-rodinia-3.6.sm_70.ptx:460) @%p27 bra BB0_44;
GPGPU-Sim PTX:    immediate post dominator      @  PC=0xb7a8 (nw-rodinia-3.6.sm_70.ptx:474) bar.sync 0;
GPGPU-Sim PTX: 23 (potential) branch divergence @  PC=0xb7b0 (nw-rodinia-3.6.sm_70.ptx:475) @%p26 bra BB0_46;
GPGPU-Sim PTX:    immediate post dominator      @  PC=0xb808 (nw-rodinia-3.6.sm_70.ptx:489) bar.sync 0;
GPGPU-Sim PTX: 24 (potential) branch divergence @  PC=0xb810 (nw-rodinia-3.6.sm_70.ptx:490) @%p25 bra BB0_48;
GPGPU-Sim PTX:    immediate post dominator      @  PC=0xb868 (nw-rodinia-3.6.sm_70.ptx:504) bar.sync 0;
GPGPU-Sim PTX: 25 (potential) branch divergence @  PC=0xb870 (nw-rodinia-3.6.sm_70.ptx:505) @%p24 bra BB0_50;
GPGPU-Sim PTX:    immediate post dominator      @  PC=0xb8c8 (nw-rodinia-3.6.sm_70.ptx:519) bar.sync 0;
GPGPU-Sim PTX: 26 (potential) branch divergence @  PC=0xb8d0 (nw-rodinia-3.6.sm_70.ptx:520) @%p23 bra BB0_52;
GPGPU-Sim PTX:    immediate post dominator      @  PC=0xb928 (nw-rodinia-3.6.sm_70.ptx:534) bar.sync 0;
GPGPU-Sim PTX: 27 (potential) branch divergence @  PC=0xb930 (nw-rodinia-3.6.sm_70.ptx:535) @%p22 bra BB0_54;
GPGPU-Sim PTX:    immediate post dominator      @  PC=0xb988 (nw-rodinia-3.6.sm_70.ptx:549) bar.sync 0;
GPGPU-Sim PTX: 28 (potential) branch divergence @  PC=0xb990 (nw-rodinia-3.6.sm_70.ptx:550) @%p21 bra BB0_56;
GPGPU-Sim PTX:    immediate post dominator      @  PC=0xb9e8 (nw-rodinia-3.6.sm_70.ptx:564) bar.sync 0;
GPGPU-Sim PTX: 29 (potential) branch divergence @  PC=0xb9f0 (nw-rodinia-3.6.sm_70.ptx:565) @%p20 bra BB0_58;
GPGPU-Sim PTX:    immediate post dominator      @  PC=0xba48 (nw-rodinia-3.6.sm_70.ptx:579) bar.sync 0;
GPGPU-Sim PTX: 30 (potential) branch divergence @  PC=0xba50 (nw-rodinia-3.6.sm_70.ptx:580) @%p19 bra BB0_60;
GPGPU-Sim PTX:    immediate post dominator      @  PC=0xbaa8 (nw-rodinia-3.6.sm_70.ptx:594) bar.sync 0;
GPGPU-Sim PTX: 31 (potential) branch divergence @  PC=0xbab0 (nw-rodinia-3.6.sm_70.ptx:595) @%p18 bra BB0_62;
GPGPU-Sim PTX:    immediate post dominator      @  PC=0xbb08 (nw-rodinia-3.6.sm_70.ptx:609) bar.sync 0;
GPGPU-Sim PTX: 32 (potential) branch divergence @  PC=0xbb10 (nw-rodinia-3.6.sm_70.ptx:610) @%p17 bra BB0_64;
GPGPU-Sim PTX:    immediate post dominator      @  PC=0xbb68 (nw-rodinia-3.6.sm_70.ptx:624) bar.sync 0;
GPGPU-Sim PTX: ... end of reconvergence points for _Z20needle_cuda_shared_1PiS_iiii
GPGPU-Sim PTX: ... done pre-decoding instructions for '_Z20needle_cuda_shared_1PiS_iiii'.
GPGPU-Sim PTX: pushing kernel '_Z20needle_cuda_shared_1PiS_iiii' to stream 0, gridDim= (1,1,1) blockDim = (16,1,1) 
GPGPU-Sim uArch: CTA/core = 32, limited by: cta_limit
GPGPU-Sim: Reconfigure L1 cache to 120KB


GPGPU-Sim uArch: ERROR ** deadlock detected: last writeback core 0 @ gpu_sim_cycle 2072029112 (+ gpu_tot_sim_cycle 4294917296) (2222988184 cycles ago)


Re-run the simulator in gdb and use debug routines in .gdbinit to debug this
