Skipping setup_environment - already set
doing: export -n PTX_SIM_USE_PTX_FILE
doing: export LD_LIBRARY_PATH=/home/min/a/devlinc/Documents/ECE60827/hardware-sim-assgn-2/hardware-simulation-assignment-2-texashodlr/util/job_launching/../../sim_run_9.1/gpgpu-sim-builds/accelsim-commit-a5339f56558d282e0ff48181156f07c28d32c1b6_modified_0.0:/home/min/a/devlinc/Documents/ECE60827/hardware-sim-assgn-2/hardware-simulation-assignment-2-texashodlr/gpu-simulator/gpgpu-sim/lib/gcc-8.3.0/cuda-9010/release:/home/min/a/devlinc/Documents/ECE60827/hardware-sim-assgn-2/hardware-simulation-assignment-2-texashodlr/gpu-simulator/gpgpu-sim/lib/gcc-8.3.0/cuda-9010/release:/package/gcc/8.3.0/lib64:
doing: cd /home/min/a/devlinc/Documents/ECE60827/hardware-sim-assgn-2/hardware-simulation-assignment-2-texashodlr/util/job_launching/../../sim_run_9.1/hotspot-rodinia-3.1/1024_2_2___data_temp_1024___data_power_1024_output_out/QV100-SASS-1B_INSN
doing: export OPENCL_CURRENT_TEST_PATH=/home/min/a/devlinc/Documents/ECE60827/hardware-sim-assgn-2/hardware-simulation-assignment-2-texashodlr/util/job_launching/../../sim_run_9.1/hotspot-rodinia-3.1/1024_2_2___data_temp_1024___data_power_1024_output_out/QV100-SASS-1B_INSN
doing: export OPENCL_REMOTE_GPU_HOST=REPLACE_REMOTE_HOST
doing 
doing: export PATH=/home/min/a/devlinc/Documents/ECE60827/hardware-sim-assgn-2/hardware-simulation-assignment-2-texashodlr/gpu-simulator/gpgpu-sim/bin:/home/min/a/ee695paa/cuda/bin:/home/min/a/ee695paa/cuda/bin:/home/min/a/ee695paa/cuda/bin:/package/gcc/8.3.0/bin:/usr/lib64/qt-3.3/bin:/usr/lib64/ccache:/usr/local/bin:/usr/bin:/usr/local/sbin:/usr/sbin:.
doing export CUDA_LAUNCH_BLOCKING=1
doing:  /home/min/a/devlinc/Documents/ECE60827/hardware-sim-assgn-2/hardware-simulation-assignment-2-texashodlr/util/job_launching/../../sim_run_9.1/gpgpu-sim-builds/accelsim-commit-a5339f56558d282e0ff48181156f07c28d32c1b6_modified_0.0/accel-sim.out  -config ./gpgpusim.config -trace ./traces/kernelslist.g
Accel-Sim [build accelsim-commit-a5339f56558d282e0ff48181156f07c28d32c1b6_modified_0.0]

        *** GPGPU-Sim Simulator Version 4.0.0  [build gpgpu-sim_git-commit-a5339f56558d282e0ff48181156f07c28d32c1b6_modified_0.0] ***


GPGPU-Sim: Configuration options:

-save_embedded_ptx                      0 # saves ptx files embedded in binary as <n>.ptx
-keep                                   0 # keep intermediate files created by GPGPU-Sim when interfacing with external programs
-gpgpu_ptx_save_converted_ptxplus                    0 # Saved converted ptxplus to a file
-gpgpu_occupancy_sm_number                   70 # The SM number to pass to ptxas when getting register usage for computing GPU occupancy. This parameter is required in the config.
-ptx_opcode_latency_int      4,13,4,5,145,21 # Opcode latencies for integers <ADD,MAX,MUL,MAD,DIV,SHFL>Default 1,1,19,25,145,32
-ptx_opcode_latency_fp          4,13,4,5,39 # Opcode latencies for single precision floating points <ADD,MAX,MUL,MAD,DIV>Default 1,1,1,1,30
-ptx_opcode_latency_dp         8,19,8,8,330 # Opcode latencies for double precision floating points <ADD,MAX,MUL,MAD,DIV>Default 8,8,8,8,335
-ptx_opcode_latency_sfu                  100 # Opcode latencies for SFU instructionsDefault 8
-ptx_opcode_latency_tesnor                   64 # Opcode latencies for Tensor instructionsDefault 64
-ptx_opcode_initiation_int          2,2,2,2,8,4 # Opcode initiation intervals for integers <ADD,MAX,MUL,MAD,DIV,SHFL>Default 1,1,4,4,32,4
-ptx_opcode_initiation_fp            2,2,2,2,4 # Opcode initiation intervals for single precision floating points <ADD,MAX,MUL,MAD,DIV>Default 1,1,1,1,5
-ptx_opcode_initiation_dp          4,4,4,4,130 # Opcode initiation intervals for double precision floating points <ADD,MAX,MUL,MAD,DIV>Default 8,8,8,8,130
-ptx_opcode_initiation_sfu                    8 # Opcode initiation intervals for sfu instructionsDefault 8
-ptx_opcode_initiation_tensor                   64 # Opcode initiation intervals for tensor instructionsDefault 64
-cdp_latency         7200,8000,100,12000,1600 # CDP API latency <cudaStreamCreateWithFlags, cudaGetParameterBufferV2_init_perWarp, cudaGetParameterBufferV2_perKernel, cudaLaunchDeviceV2_init_perWarp, cudaLaunchDevicV2_perKernel>Default 7200,8000,100,12000,1600
-network_mode                           2 # Interconnection network mode
-inter_config_file                   mesh # Interconnection network config file
-icnt_in_buffer_limit                  512 # in_buffer_limit
-icnt_out_buffer_limit                  512 # out_buffer_limit
-icnt_subnets                           2 # subnets
-icnt_arbiter_algo                      1 # arbiter_algo
-icnt_verbose                           0 # inct_verbose
-icnt_grant_cycles                      1 # grant_cycles
-gpgpu_ptx_use_cuobjdump                    1 # Use cuobjdump to extract ptx and sass from binaries
-gpgpu_experimental_lib_support                    0 # Try to extract code from cuda libraries [Broken because of unknown cudaGetExportTable]
-checkpoint_option                      0 #  checkpointing flag (0 = no checkpoint)
-checkpoint_kernel                      1 #  checkpointing during execution of which kernel (1- 1st kernel)
-checkpoint_CTA                         0 #  checkpointing after # of CTA (< less than total CTA)
-resume_option                          0 #  resume flag (0 = no resume)
-resume_kernel                          0 #  Resume from which kernel (1= 1st kernel)
-resume_CTA                             0 #  resume from which CTA 
-checkpoint_CTA_t                       0 #  resume from which CTA 
-checkpoint_insn_Y                      0 #  resume from which CTA 
-gpgpu_ptx_convert_to_ptxplus                    0 # Convert SASS (native ISA) to ptxplus and run ptxplus
-gpgpu_ptx_force_max_capability                   70 # Force maximum compute capability
-gpgpu_ptx_inst_debug_to_file                    0 # Dump executed instructions' debug information to file
-gpgpu_ptx_inst_debug_file       inst_debug.txt # Executed instructions' debug output file
-gpgpu_ptx_inst_debug_thread_uid                    1 # Thread UID for executed instructions' debug output
-gpgpu_simd_model                       1 # 1 = post-dominator
-gpgpu_shader_core_pipeline              2048:32 # shader core pipeline config, i.e., {<nthread>:<warpsize>}
-gpgpu_tex_cache:l1  N:4:128:256,L:R:m:N:L,T:512:8,128:2 # per-shader L1 texture cache  (READ-ONLY) config  {<nsets>:<bsize>:<assoc>,<rep>:<wr>:<alloc>:<wr_alloc>,<mshr>:<N>:<merge>,<mq>:<rf>}
-gpgpu_const_cache:l1 N:128:64:8,L:R:f:N:L,S:2:64,4 # per-shader L1 constant memory cache  (READ-ONLY) config  {<nsets>:<bsize>:<assoc>,<rep>:<wr>:<alloc>:<wr_alloc>,<mshr>:<N>:<merge>,<mq>} 
-gpgpu_cache:il1     N:64:128:16,L:R:f:N:L,S:2:48,4 # shader L1 instruction cache config  {<nsets>:<bsize>:<assoc>,<rep>:<wr>:<alloc>:<wr_alloc>,<mshr>:<N>:<merge>,<mq>} 
-gpgpu_cache:dl1     S:1:128:256,L:L:m:N:L,A:512:8,16:0,32 # per-shader L1 data cache config  {<nsets>:<bsize>:<assoc>,<rep>:<wr>:<alloc>:<wr_alloc>,<mshr>:<N>:<merge>,<mq> | none}
-gpgpu_l1_banks                         4 # The number of L1 cache banks
-gpgpu_l1_banks_byte_interleaving                   32 # l1 banks byte interleaving granularity
-gpgpu_l1_banks_hashing_function                    0 # l1 banks hashing function
-gpgpu_l1_latency                      20 # L1 Hit Latency
-gpgpu_smem_latency                    20 # smem Latency
-gpgpu_cache:dl1PrefL1                 none # per-shader L1 data cache config  {<nsets>:<bsize>:<assoc>,<rep>:<wr>:<alloc>:<wr_alloc>,<mshr>:<N>:<merge>,<mq> | none}
-gpgpu_cache:dl1PrefShared                 none # per-shader L1 data cache config  {<nsets>:<bsize>:<assoc>,<rep>:<wr>:<alloc>:<wr_alloc>,<mshr>:<N>:<merge>,<mq> | none}
-gpgpu_gmem_skip_L1D                    0 # global memory access skip L1D cache (implements -Xptxas -dlcm=cg, default=no skip)
-gpgpu_perfect_mem                      0 # enable perfect memory mode (no cache miss)
-n_regfile_gating_group                    4 # group of lanes that should be read/written together)
-gpgpu_clock_gated_reg_file                    0 # enable clock gated reg file for power calculations
-gpgpu_clock_gated_lanes                    0 # enable clock gated lanes for power calculations
-gpgpu_shader_registers                65536 # Number of registers per shader core. Limits number of concurrent CTAs. (default 8192)
-gpgpu_registers_per_block                65536 # Maximum number of registers per CTA. (default 8192)
-gpgpu_ignore_resources_limitation                    0 # gpgpu_ignore_resources_limitation (default 0)
-gpgpu_shader_cta                      32 # Maximum number of concurrent CTAs in shader (default 8)
-gpgpu_num_cta_barriers                   16 # Maximum number of named barriers per CTA (default 16)
-gpgpu_n_clusters                      80 # number of processing clusters
-gpgpu_n_cores_per_cluster                    1 # number of simd cores per cluster
-gpgpu_n_cluster_ejection_buffer_size                   32 # number of packets in ejection buffer
-gpgpu_n_ldst_response_buffer_size                    2 # number of response packets in ld/st unit ejection buffer
-gpgpu_shmem_per_block                65536 # Size of shared memory per thread block or CTA (default 48kB)
-gpgpu_shmem_size                   98304 # Size of shared memory per shader core (default 16kB)
-gpgpu_adaptive_cache_config                    1 # adaptive_cache_config
-gpgpu_shmem_sizeDefault                98304 # Size of shared memory per shader core (default 16kB)
-gpgpu_shmem_size_PrefL1                16384 # Size of shared memory per shader core (default 16kB)
-gpgpu_shmem_size_PrefShared                16384 # Size of shared memory per shader core (default 16kB)
-gpgpu_shmem_num_banks                   32 # Number of banks in the shared memory in each shader core (default 16)
-gpgpu_shmem_limited_broadcast                    0 # Limit shared memory to do one broadcast per cycle (default on)
-gpgpu_shmem_warp_parts                    1 # Number of portions a warp is divided into for shared memory bank conflict check 
-gpgpu_mem_unit_ports                    1 # The number of memory transactions allowed per core cycle
-gpgpu_shmem_warp_parts                    1 # Number of portions a warp is divided into for shared memory bank conflict check 
-gpgpu_warpdistro_shader                   -1 # Specify which shader core to collect the warp size distribution from
-gpgpu_warp_issue_shader                    0 # Specify which shader core to collect the warp issue distribution from
-gpgpu_local_mem_map                    1 # Mapping from local memory space address to simulated GPU physical address space (default = enabled)
-gpgpu_num_reg_banks                   16 # Number of register banks (default = 8)
-gpgpu_reg_bank_use_warp_id                    0 # Use warp ID in mapping registers to banks (default = off)
-gpgpu_sub_core_model                    1 # Sub Core Volta/Pascal model (default = off)
-gpgpu_enable_specialized_operand_collector                    0 # enable_specialized_operand_collector
-gpgpu_operand_collector_num_units_sp                    4 # number of collector units (default = 4)
-gpgpu_operand_collector_num_units_dp                    0 # number of collector units (default = 0)
-gpgpu_operand_collector_num_units_sfu                    4 # number of collector units (default = 4)
-gpgpu_operand_collector_num_units_int                    0 # number of collector units (default = 0)
-gpgpu_operand_collector_num_units_tensor_core                    4 # number of collector units (default = 4)
-gpgpu_operand_collector_num_units_mem                    2 # number of collector units (default = 2)
-gpgpu_operand_collector_num_units_gen                    8 # number of collector units (default = 0)
-gpgpu_operand_collector_num_in_ports_sp                    1 # number of collector unit in ports (default = 1)
-gpgpu_operand_collector_num_in_ports_dp                    0 # number of collector unit in ports (default = 0)
-gpgpu_operand_collector_num_in_ports_sfu                    1 # number of collector unit in ports (default = 1)
-gpgpu_operand_collector_num_in_ports_int                    0 # number of collector unit in ports (default = 0)
-gpgpu_operand_collector_num_in_ports_tensor_core                    1 # number of collector unit in ports (default = 1)
-gpgpu_operand_collector_num_in_ports_mem                    1 # number of collector unit in ports (default = 1)
-gpgpu_operand_collector_num_in_ports_gen                    8 # number of collector unit in ports (default = 0)
-gpgpu_operand_collector_num_out_ports_sp                    1 # number of collector unit in ports (default = 1)
-gpgpu_operand_collector_num_out_ports_dp                    0 # number of collector unit in ports (default = 0)
-gpgpu_operand_collector_num_out_ports_sfu                    1 # number of collector unit in ports (default = 1)
-gpgpu_operand_collector_num_out_ports_int                    0 # number of collector unit in ports (default = 0)
-gpgpu_operand_collector_num_out_ports_tensor_core                    1 # number of collector unit in ports (default = 1)
-gpgpu_operand_collector_num_out_ports_mem                    1 # number of collector unit in ports (default = 1)
-gpgpu_operand_collector_num_out_ports_gen                    8 # number of collector unit in ports (default = 0)
-gpgpu_coalesce_arch                   60 # Coalescing arch (GT200 = 13, Fermi = 20)
-gpgpu_num_sched_per_core                    4 # Number of warp schedulers per core
-gpgpu_max_insn_issue_per_warp                    1 # Max number of instructions that can be issued per warp in one cycle by scheduler (either 1 or 2)
-gpgpu_dual_issue_diff_exec_units                    1 # should dual issue use two different execution unit resources (Default = 1)
-gpgpu_simt_core_sim_order                    1 # Select the simulation order of cores in a cluster (0=Fix, 1=Round-Robin)
-gpgpu_pipeline_widths 4,4,4,4,4,4,4,4,4,4,8,4,4 # Pipeline widths ID_OC_SP,ID_OC_DP,ID_OC_INT,ID_OC_SFU,ID_OC_MEM,OC_EX_SP,OC_EX_DP,OC_EX_INT,OC_EX_SFU,OC_EX_MEM,EX_WB,ID_OC_TENSOR_CORE,OC_EX_TENSOR_CORE
-gpgpu_tensor_core_avail                    1 # Tensor Core Available (default=0)
-gpgpu_num_sp_units                     4 # Number of SP units (default=1)
-gpgpu_num_dp_units                     4 # Number of DP units (default=0)
-gpgpu_num_int_units                    4 # Number of INT units (default=0)
-gpgpu_num_sfu_units                    4 # Number of SF units (default=1)
-gpgpu_num_tensor_core_units                    4 # Number of tensor_core units (default=1)
-gpgpu_num_mem_units                    1 # Number if ldst units (default=1) WARNING: not hooked up to anything
-gpgpu_scheduler                      gto # Scheduler configuration: < lrr | gto | two_level_active > If two_level_active:<num_active_warps>:<inner_prioritization>:<outer_prioritization>For complete list of prioritization values see shader.h enum scheduler_prioritization_typeDefault: gto
-gpgpu_concurrent_kernel_sm                    0 # Support concurrent kernels on a SM (default = disabled)
-gpgpu_perfect_inst_const_cache                    1 # perfect inst and const cache mode, so all inst and const hits in the cache(default = disabled)
-gpgpu_inst_fetch_throughput                    4 # the number of fetched intruction per warp each cycle
-gpgpu_reg_file_port_throughput                    2 # the number ports of the register file
-specialized_unit_1         1,4,4,4,4,BRA # specialized unit config {<enabled>,<num_units>:<latency>:<initiation>,<ID_OC_SPEC>:<OC_EX_SPEC>,<NAME>}
-specialized_unit_2       1,4,200,4,4,TEX # specialized unit config {<enabled>,<num_units>:<latency>:<initiation>,<ID_OC_SPEC>:<OC_EX_SPEC>,<NAME>}
-specialized_unit_3      1,4,8,4,4,TENSOR # specialized unit config {<enabled>,<num_units>:<latency>:<initiation>,<ID_OC_SPEC>:<OC_EX_SPEC>,<NAME>}
-specialized_unit_4         0,4,4,4,4,BRA # specialized unit config {<enabled>,<num_units>:<latency>:<initiation>,<ID_OC_SPEC>:<OC_EX_SPEC>,<NAME>}
-specialized_unit_5         0,4,4,4,4,BRA # specialized unit config {<enabled>,<num_units>:<latency>:<initiation>,<ID_OC_SPEC>:<OC_EX_SPEC>,<NAME>}
-specialized_unit_6         0,4,4,4,4,BRA # specialized unit config {<enabled>,<num_units>:<latency>:<initiation>,<ID_OC_SPEC>:<OC_EX_SPEC>,<NAME>}
-specialized_unit_7         0,4,4,4,4,BRA # specialized unit config {<enabled>,<num_units>:<latency>:<initiation>,<ID_OC_SPEC>:<OC_EX_SPEC>,<NAME>}
-specialized_unit_8         0,4,4,4,4,BRA # specialized unit config {<enabled>,<num_units>:<latency>:<initiation>,<ID_OC_SPEC>:<OC_EX_SPEC>,<NAME>}
-gpgpu_perf_sim_memcpy                    1 # Fill the L2 cache on memcpy
-gpgpu_simple_dram_model                    0 # simple_dram_model with fixed latency and BW
-gpgpu_dram_scheduler                    1 # 0 = fifo, 1 = FR-FCFS (defaul)
-gpgpu_dram_partition_queues          64:64:64:64 # i2$:$2d:d2$:$2i
-l2_ideal                               0 # Use a ideal L2 cache that always hit
-gpgpu_cache:dl2     S:32:128:24,L:B:m:L:P,A:192:4,32:0,32 # unified banked L2 data cache config  {<nsets>:<bsize>:<assoc>,<rep>:<wr>:<alloc>:<wr_alloc>,<mshr>:<N>:<merge>,<mq>}
-gpgpu_cache:dl2_texture_only                    0 # L2 cache used for texture only
-gpgpu_n_mem                           32 # number of memory modules (e.g. memory controllers) in gpu
-gpgpu_n_sub_partition_per_mchannel                    2 # number of memory subpartition in each memory module
-gpgpu_n_mem_per_ctrlr                    1 # number of memory chips per memory controller
-gpgpu_memlatency_stat                   14 # track and display latency statistics 0x2 enables MC, 0x4 enables queue logs
-gpgpu_frfcfs_dram_sched_queue_size                   64 # 0 = unlimited (default); # entries per chip
-gpgpu_dram_return_queue_size                  192 # 0 = unlimited (default); # entries per chip
-gpgpu_dram_buswidth                   16 # default = 4 bytes (8 bytes per cycle at DDR)
-gpgpu_dram_burst_length                    2 # Burst length of each DRAM request (default = 4 data bus cycle)
-dram_data_command_freq_ratio                    2 # Frequency ratio between DRAM data bus and command bus (default = 2 times, i.e. DDR)
-gpgpu_dram_timing_opt nbk=16:CCD=1:RRD=3:RCD=12:RAS=28:RP=12:RC=40: CL=12:WL=2:CDLR=3:WR=10:nbkgrp=4:CCDL=2:RTPL=3 # DRAM timing parameters = {nbk:tCCD:tRRD:tRCD:tRAS:tRP:tRC:CL:WL:tCDLR:tWR:nbkgrp:tCCDL:tRTPL}
-gpgpu_l2_rop_latency                  160 # ROP queue latency (default 85)
-dram_latency                         100 # DRAM latency (default 30)
-dram_dual_bus_interface                    1 # dual_bus_interface (default = 0) 
-dram_bnk_indexing_policy                    0 # dram_bnk_indexing_policy (0 = normal indexing, 1 = Xoring with the higher bits) (Default = 0)
-dram_bnkgrp_indexing_policy                    1 # dram_bnkgrp_indexing_policy (0 = take higher bits, 1 = take lower bits) (Default = 0)
-dram_seperate_write_queue_enable                    0 # Seperate_Write_Queue_Enable
-dram_write_queue_size             32:28:16 # Write_Queue_Size
-dram_elimnate_rw_turnaround                    0 # elimnate_rw_turnaround i.e set tWTR and tRTW = 0
-icnt_flit_size                        40 # icnt_flit_size
-gpgpu_mem_addr_mapping dramid@8;00000000.00000000.00000000.00000000.0000RRRR.RRRRRRRR.RBBBCCCB.CCCSSSSS # mapping memory address to dram model {dramid@<start bit>;<memory address map>}
-gpgpu_mem_addr_test                    0 # run sweep test to check address mapping for aliased address
-gpgpu_mem_address_mask                    1 # 0 = old addressing mask, 1 = new addressing mask, 2 = new add. mask + flipped bank sel and chip sel bits
-gpgpu_memory_partition_indexing                    2 # 0 = no indexing, 1 = bitwise xoring, 2 = IPoly, 3 = custom indexing
-gpuwattch_xml_file         gpuwattch.xml # GPUWattch XML file
-power_simulation_enabled                    0 # Turn on power simulator (1=On, 0=Off)
-power_per_cycle_dump                    0 # Dump detailed power output each cycle
-power_trace_enabled                    0 # produce a file for the power trace (1=On, 0=Off)
-power_trace_zlevel                     6 # Compression level of the power trace output log (0=no comp, 9=highest)
-steady_power_levels_enabled                    0 # produce a file for the steady power levels (1=On, 0=Off)
-steady_state_definition                  8:4 # allowed deviation:number of samples
-gpgpu_max_cycle                        0 # terminates gpu simulation early (0 = no limit)
-gpgpu_max_insn                1000000000 # terminates gpu simulation early (0 = no limit)
-gpgpu_max_cta                          0 # terminates gpu simulation early (0 = no limit)
-gpgpu_max_completed_cta                    0 # terminates gpu simulation early (0 = no limit)
-gpgpu_runtime_stat                   500 # display runtime statistics such as dram utilization {<freq>:<flag>}
-liveness_message_freq                    1 # Minimum number of seconds between simulation liveness messages (0 = always print)
-gpgpu_compute_capability_major                    7 # Major compute capability version number
-gpgpu_compute_capability_minor                    0 # Minor compute capability version number
-gpgpu_flush_l1_cache                    1 # Flush L1 cache at the end of each kernel call
-gpgpu_flush_l2_cache                    0 # Flush L2 cache at the end of each kernel call
-gpgpu_deadlock_detect                    1 # Stop the simulation at deadlock (1=on (default), 0=off)
-gpgpu_ptx_instruction_classification                    0 # if enabled will classify ptx instruction types per kernel (Max 255 kernels now)
-gpgpu_ptx_sim_mode                     0 # Select between Performance (default) or Functional simulation (1)
-gpgpu_clock_domains 1132.0:1132.0:1132.0:850.0 # Clock Domain Frequencies in MhZ {<Core Clock>:<ICNT Clock>:<L2 Clock>:<DRAM Clock>}
-gpgpu_max_concurrent_kernel                    8 # maximum kernels that can run concurrently on GPU
-gpgpu_cflog_interval                    0 # Interval between each snapshot in control flow logger
-visualizer_enabled                     0 # Turn on visualizer output (1=On, 0=Off)
-visualizer_outputfile                 NULL # Specifies the output log file for visualizer
-visualizer_zlevel                      6 # Compression level of the visualizer output log (0=no comp, 9=highest)
-gpgpu_stack_size_limit                 1024 # GPU thread stack size
-gpgpu_heap_size_limit              8388608 # GPU malloc heap size 
-gpgpu_runtime_sync_depth_limit                    2 # GPU device runtime synchronize depth
-gpgpu_runtime_pending_launch_count_limit                 2048 # GPU device runtime pending launch count
-trace_enabled                          0 # Turn on traces
-trace_components                    none # comma seperated list of traces to enable. Complete list found in trace_streams.tup. Default none
-trace_sampling_core                    0 # The core which is printed using CORE_DPRINTF. Default 0
-trace_sampling_memory_partition                   -1 # The memory partition which is printed using MEMPART_DPRINTF. Default -1 (i.e. all)
-enable_ptx_file_line_stats                    1 # Turn on PTX source line statistic profiling. (1 = On)
-ptx_line_stats_filename gpgpu_inst_stats.txt # Output file for PTX source line statistics.
-gpgpu_kernel_launch_latency                 5000 # Kernel launch latency in cycles. Default: 0
-gpgpu_cdp_enabled                      0 # Turn on CDP
-gpgpu_TB_launch_latency                    0 # thread block launch latency in cycles. Default: 0
-trace               ./traces/kernelslist.g # traces kernel filetraces kernel file directory
-trace_opcode_latency_initiation_int                  4,2 # Opcode latencies and initiation for integers in trace driven mode <latency,initiation>
-trace_opcode_latency_initiation_sp                  4,2 # Opcode latencies and initiation for sp in trace driven mode <latency,initiation>
-trace_opcode_latency_initiation_dp                  8,4 # Opcode latencies and initiation for dp in trace driven mode <latency,initiation>
-trace_opcode_latency_initiation_sfu                 20,8 # Opcode latencies and initiation for sfu in trace driven mode <latency,initiation>
-trace_opcode_latency_initiation_tensor                  8,4 # Opcode latencies and initiation for tensor in trace driven mode <latency,initiation>
-trace_opcode_latency_initiation_spec_op_1                  4,4 # specialized unit config <latency,initiation>
-trace_opcode_latency_initiation_spec_op_2                200,4 # specialized unit config <latency,initiation>
-trace_opcode_latency_initiation_spec_op_3                  8,4 # specialized unit config <latency,initiation>
-trace_opcode_latency_initiation_spec_op_4                  4,4 # specialized unit config <latency,initiation>
-trace_opcode_latency_initiation_spec_op_5                  4,4 # specialized unit config <latency,initiation>
-trace_opcode_latency_initiation_spec_op_6                  4,4 # specialized unit config <latency,initiation>
-trace_opcode_latency_initiation_spec_op_7                  4,4 # specialized unit config <latency,initiation>
-trace_opcode_latency_initiation_spec_op_8                  4,4 # specialized unit config <latency,initiation>
DRAM Timing Options:
nbk                                    16 # number of banks
CCD                                     1 # column to column delay
RRD                                     3 # minimal delay between activation of rows in different banks
RCD                                    12 # row to column delay
RAS                                    28 # time needed to activate row
RP                                     12 # time needed to precharge (deactivate) row
RC                                     40 # row cycle time
CDLR                                    3 # switching from write to read (changes tWTR)
WR                                     10 # last data-in to row precharge
CL                                     12 # CAS latency
WL                                      2 # Write latency
nbkgrp                                  4 # number of bank groups
CCDL                                    2 # column to column delay between accesses to different bank groups
RTPL                                    3 # read to precharge delay between accesses to different bank groups
Total number of memory sub partition = 64
addr_dec_mask[CHIP]  = 0000000000001f00 	high:13 low:8
addr_dec_mask[BK]    = 00000000000e2000 	high:20 low:13
addr_dec_mask[ROW]   = 00000001fff00000 	high:33 low:20
addr_dec_mask[COL]   = 000000000001c0ff 	high:17 low:0
addr_dec_mask[BURST] = 000000000000001f 	high:5 low:0
sub_partition_id_mask = 0000000000002000
GPGPU-Sim uArch: clock freqs: 1132000000.000000:1132000000.000000:1132000000.000000:850000000.000000
GPGPU-Sim uArch: clock periods: 0.00000000088339222615:0.00000000088339222615:0.00000000088339222615:0.00000000117647058824
*** Initializing Memory Statistics ***
GPGPU-Sim uArch: performance model initialization complete.
launching memcpy command : MemcpyHtoD,0x00007f01f1c00000,4194304
launching memcpy command : MemcpyHtoD,0x00007f01f4000000,4194304
Processing kernel ./traces/kernel-1.traceg
-kernel name = _Z14calculate_tempiPfS_S_iiiiffffff
-kernel id = 1
-grid dim = (86,86,1)
-block dim = (16,16,1)
-shmem = 3072
-nregs = 34
-binary version = 70
-cuda stream id = 0
-shmem base_addr = 0x00007f0226000000
-local mem base_addr = 0x00007f0224000000
-nvbit version = 1.5.3
-accelsim tracer version = 3
launching kernel command : ./traces/kernel-1.traceg
GPGPU-Sim uArch: Shader 0 bind to kernel 1 '_Z14calculate_tempiPfS_S_iiiiffffff'
GPGPU-Sim uArch: CTA/core = 7, limited by: regs
GPGPU-Sim: Reconfigure L1 cache to 96KB
thread block = 0,0,0
GPGPU-Sim uArch: Shader 1 bind to kernel 1 '_Z14calculate_tempiPfS_S_iiiiffffff'
thread block = 1,0,0
GPGPU-Sim uArch: Shader 2 bind to kernel 1 '_Z14calculate_tempiPfS_S_iiiiffffff'
thread block = 2,0,0
GPGPU-Sim uArch: Shader 3 bind to kernel 1 '_Z14calculate_tempiPfS_S_iiiiffffff'
thread block = 3,0,0
GPGPU-Sim uArch: Shader 4 bind to kernel 1 '_Z14calculate_tempiPfS_S_iiiiffffff'
thread block = 4,0,0
GPGPU-Sim uArch: Shader 5 bind to kernel 1 '_Z14calculate_tempiPfS_S_iiiiffffff'
thread block = 5,0,0
GPGPU-Sim uArch: Shader 6 bind to kernel 1 '_Z14calculate_tempiPfS_S_iiiiffffff'
thread block = 6,0,0
GPGPU-Sim uArch: Shader 7 bind to kernel 1 '_Z14calculate_tempiPfS_S_iiiiffffff'
thread block = 7,0,0
GPGPU-Sim uArch: Shader 8 bind to kernel 1 '_Z14calculate_tempiPfS_S_iiiiffffff'
thread block = 8,0,0
GPGPU-Sim uArch: Shader 9 bind to kernel 1 '_Z14calculate_tempiPfS_S_iiiiffffff'
thread block = 9,0,0
GPGPU-Sim uArch: Shader 10 bind to kernel 1 '_Z14calculate_tempiPfS_S_iiiiffffff'
thread block = 10,0,0
GPGPU-Sim uArch: Shader 11 bind to kernel 1 '_Z14calculate_tempiPfS_S_iiiiffffff'
thread block = 11,0,0
GPGPU-Sim uArch: Shader 12 bind to kernel 1 '_Z14calculate_tempiPfS_S_iiiiffffff'
thread block = 12,0,0
GPGPU-Sim uArch: Shader 13 bind to kernel 1 '_Z14calculate_tempiPfS_S_iiiiffffff'
thread block = 13,0,0
GPGPU-Sim uArch: Shader 14 bind to kernel 1 '_Z14calculate_tempiPfS_S_iiiiffffff'
thread block = 14,0,0
GPGPU-Sim uArch: Shader 15 bind to kernel 1 '_Z14calculate_tempiPfS_S_iiiiffffff'
thread block = 15,0,0
GPGPU-Sim uArch: Shader 16 bind to kernel 1 '_Z14calculate_tempiPfS_S_iiiiffffff'
thread block = 16,0,0
GPGPU-Sim uArch: Shader 17 bind to kernel 1 '_Z14calculate_tempiPfS_S_iiiiffffff'
thread block = 17,0,0
GPGPU-Sim uArch: Shader 18 bind to kernel 1 '_Z14calculate_tempiPfS_S_iiiiffffff'
thread block = 18,0,0
GPGPU-Sim uArch: Shader 19 bind to kernel 1 '_Z14calculate_tempiPfS_S_iiiiffffff'
thread block = 19,0,0
GPGPU-Sim uArch: Shader 20 bind to kernel 1 '_Z14calculate_tempiPfS_S_iiiiffffff'
thread block = 20,0,0
GPGPU-Sim uArch: Shader 21 bind to kernel 1 '_Z14calculate_tempiPfS_S_iiiiffffff'
thread block = 21,0,0
GPGPU-Sim uArch: Shader 22 bind to kernel 1 '_Z14calculate_tempiPfS_S_iiiiffffff'
thread block = 22,0,0
GPGPU-Sim uArch: Shader 23 bind to kernel 1 '_Z14calculate_tempiPfS_S_iiiiffffff'
thread block = 23,0,0
GPGPU-Sim uArch: Shader 24 bind to kernel 1 '_Z14calculate_tempiPfS_S_iiiiffffff'
thread block = 24,0,0
GPGPU-Sim uArch: Shader 25 bind to kernel 1 '_Z14calculate_tempiPfS_S_iiiiffffff'
thread block = 25,0,0
GPGPU-Sim uArch: Shader 26 bind to kernel 1 '_Z14calculate_tempiPfS_S_iiiiffffff'
thread block = 26,0,0
GPGPU-Sim uArch: Shader 27 bind to kernel 1 '_Z14calculate_tempiPfS_S_iiiiffffff'
thread block = 27,0,0
GPGPU-Sim uArch: Shader 28 bind to kernel 1 '_Z14calculate_tempiPfS_S_iiiiffffff'
thread block = 28,0,0
GPGPU-Sim uArch: Shader 29 bind to kernel 1 '_Z14calculate_tempiPfS_S_iiiiffffff'
thread block = 29,0,0
GPGPU-Sim uArch: Shader 30 bind to kernel 1 '_Z14calculate_tempiPfS_S_iiiiffffff'
thread block = 30,0,0
GPGPU-Sim uArch: Shader 31 bind to kernel 1 '_Z14calculate_tempiPfS_S_iiiiffffff'
thread block = 31,0,0
GPGPU-Sim uArch: Shader 32 bind to kernel 1 '_Z14calculate_tempiPfS_S_iiiiffffff'
thread block = 32,0,0
GPGPU-Sim uArch: Shader 33 bind to kernel 1 '_Z14calculate_tempiPfS_S_iiiiffffff'
thread block = 33,0,0
GPGPU-Sim uArch: Shader 34 bind to kernel 1 '_Z14calculate_tempiPfS_S_iiiiffffff'
thread block = 34,0,0
GPGPU-Sim uArch: Shader 35 bind to kernel 1 '_Z14calculate_tempiPfS_S_iiiiffffff'
thread block = 35,0,0
GPGPU-Sim uArch: Shader 36 bind to kernel 1 '_Z14calculate_tempiPfS_S_iiiiffffff'
thread block = 36,0,0
GPGPU-Sim uArch: Shader 37 bind to kernel 1 '_Z14calculate_tempiPfS_S_iiiiffffff'
thread block = 37,0,0
GPGPU-Sim uArch: Shader 38 bind to kernel 1 '_Z14calculate_tempiPfS_S_iiiiffffff'
thread block = 38,0,0
GPGPU-Sim uArch: Shader 39 bind to kernel 1 '_Z14calculate_tempiPfS_S_iiiiffffff'
thread block = 39,0,0
GPGPU-Sim uArch: Shader 40 bind to kernel 1 '_Z14calculate_tempiPfS_S_iiiiffffff'
thread block = 40,0,0
GPGPU-Sim uArch: Shader 41 bind to kernel 1 '_Z14calculate_tempiPfS_S_iiiiffffff'
thread block = 41,0,0
GPGPU-Sim uArch: Shader 42 bind to kernel 1 '_Z14calculate_tempiPfS_S_iiiiffffff'
thread block = 42,0,0
GPGPU-Sim uArch: Shader 43 bind to kernel 1 '_Z14calculate_tempiPfS_S_iiiiffffff'
thread block = 43,0,0
GPGPU-Sim uArch: Shader 44 bind to kernel 1 '_Z14calculate_tempiPfS_S_iiiiffffff'
thread block = 44,0,0
GPGPU-Sim uArch: Shader 45 bind to kernel 1 '_Z14calculate_tempiPfS_S_iiiiffffff'
thread block = 45,0,0
GPGPU-Sim uArch: Shader 46 bind to kernel 1 '_Z14calculate_tempiPfS_S_iiiiffffff'
thread block = 46,0,0
GPGPU-Sim uArch: Shader 47 bind to kernel 1 '_Z14calculate_tempiPfS_S_iiiiffffff'
thread block = 47,0,0
GPGPU-Sim uArch: Shader 48 bind to kernel 1 '_Z14calculate_tempiPfS_S_iiiiffffff'
thread block = 48,0,0
GPGPU-Sim uArch: Shader 49 bind to kernel 1 '_Z14calculate_tempiPfS_S_iiiiffffff'
thread block = 49,0,0
GPGPU-Sim uArch: Shader 50 bind to kernel 1 '_Z14calculate_tempiPfS_S_iiiiffffff'
thread block = 50,0,0
GPGPU-Sim uArch: Shader 51 bind to kernel 1 '_Z14calculate_tempiPfS_S_iiiiffffff'
thread block = 51,0,0
GPGPU-Sim uArch: Shader 52 bind to kernel 1 '_Z14calculate_tempiPfS_S_iiiiffffff'
thread block = 52,0,0
GPGPU-Sim uArch: Shader 53 bind to kernel 1 '_Z14calculate_tempiPfS_S_iiiiffffff'
thread block = 53,0,0
GPGPU-Sim uArch: Shader 54 bind to kernel 1 '_Z14calculate_tempiPfS_S_iiiiffffff'
thread block = 54,0,0
GPGPU-Sim uArch: Shader 55 bind to kernel 1 '_Z14calculate_tempiPfS_S_iiiiffffff'
thread block = 55,0,0
GPGPU-Sim uArch: Shader 56 bind to kernel 1 '_Z14calculate_tempiPfS_S_iiiiffffff'
thread block = 56,0,0
GPGPU-Sim uArch: Shader 57 bind to kernel 1 '_Z14calculate_tempiPfS_S_iiiiffffff'
thread block = 57,0,0
GPGPU-Sim uArch: Shader 58 bind to kernel 1 '_Z14calculate_tempiPfS_S_iiiiffffff'
thread block = 58,0,0
GPGPU-Sim uArch: Shader 59 bind to kernel 1 '_Z14calculate_tempiPfS_S_iiiiffffff'
thread block = 59,0,0
GPGPU-Sim uArch: Shader 60 bind to kernel 1 '_Z14calculate_tempiPfS_S_iiiiffffff'
thread block = 60,0,0
GPGPU-Sim uArch: Shader 61 bind to kernel 1 '_Z14calculate_tempiPfS_S_iiiiffffff'
thread block = 61,0,0
GPGPU-Sim uArch: Shader 62 bind to kernel 1 '_Z14calculate_tempiPfS_S_iiiiffffff'
thread block = 62,0,0
GPGPU-Sim uArch: Shader 63 bind to kernel 1 '_Z14calculate_tempiPfS_S_iiiiffffff'
thread block = 63,0,0
GPGPU-Sim uArch: Shader 64 bind to kernel 1 '_Z14calculate_tempiPfS_S_iiiiffffff'
thread block = 64,0,0
GPGPU-Sim uArch: Shader 65 bind to kernel 1 '_Z14calculate_tempiPfS_S_iiiiffffff'
thread block = 65,0,0
GPGPU-Sim uArch: Shader 66 bind to kernel 1 '_Z14calculate_tempiPfS_S_iiiiffffff'
thread block = 66,0,0
GPGPU-Sim uArch: Shader 67 bind to kernel 1 '_Z14calculate_tempiPfS_S_iiiiffffff'
thread block = 67,0,0
GPGPU-Sim uArch: Shader 68 bind to kernel 1 '_Z14calculate_tempiPfS_S_iiiiffffff'
thread block = 68,0,0
GPGPU-Sim uArch: Shader 69 bind to kernel 1 '_Z14calculate_tempiPfS_S_iiiiffffff'
thread block = 69,0,0
GPGPU-Sim uArch: Shader 70 bind to kernel 1 '_Z14calculate_tempiPfS_S_iiiiffffff'
thread block = 70,0,0
GPGPU-Sim uArch: Shader 71 bind to kernel 1 '_Z14calculate_tempiPfS_S_iiiiffffff'
thread block = 71,0,0
GPGPU-Sim uArch: Shader 72 bind to kernel 1 '_Z14calculate_tempiPfS_S_iiiiffffff'
thread block = 72,0,0
GPGPU-Sim uArch: Shader 73 bind to kernel 1 '_Z14calculate_tempiPfS_S_iiiiffffff'
thread block = 73,0,0
GPGPU-Sim uArch: Shader 74 bind to kernel 1 '_Z14calculate_tempiPfS_S_iiiiffffff'
thread block = 74,0,0
GPGPU-Sim uArch: Shader 75 bind to kernel 1 '_Z14calculate_tempiPfS_S_iiiiffffff'
thread block = 75,0,0
GPGPU-Sim uArch: Shader 76 bind to kernel 1 '_Z14calculate_tempiPfS_S_iiiiffffff'
thread block = 76,0,0
GPGPU-Sim uArch: Shader 77 bind to kernel 1 '_Z14calculate_tempiPfS_S_iiiiffffff'
thread block = 77,0,0
GPGPU-Sim uArch: Shader 78 bind to kernel 1 '_Z14calculate_tempiPfS_S_iiiiffffff'
thread block = 78,0,0
GPGPU-Sim uArch: Shader 79 bind to kernel 1 '_Z14calculate_tempiPfS_S_iiiiffffff'
thread block = 79,0,0
thread block = 80,0,0
thread block = 81,0,0
thread block = 82,0,0
thread block = 83,0,0
thread block = 84,0,0
thread block = 85,0,0
thread block = 0,1,0
thread block = 1,1,0
thread block = 2,1,0
thread block = 3,1,0
thread block = 4,1,0
thread block = 5,1,0
thread block = 6,1,0
thread block = 7,1,0
thread block = 8,1,0
thread block = 9,1,0
thread block = 10,1,0
thread block = 11,1,0
thread block = 12,1,0
thread block = 13,1,0
thread block = 14,1,0
thread block = 15,1,0
thread block = 16,1,0
thread block = 17,1,0
thread block = 18,1,0
thread block = 19,1,0
thread block = 20,1,0
thread block = 21,1,0
thread block = 22,1,0
thread block = 23,1,0
thread block = 24,1,0
thread block = 25,1,0
thread block = 26,1,0
thread block = 27,1,0
thread block = 28,1,0
thread block = 29,1,0
thread block = 30,1,0
thread block = 31,1,0
thread block = 32,1,0
thread block = 33,1,0
thread block = 34,1,0
thread block = 35,1,0
thread block = 36,1,0
thread block = 37,1,0
thread block = 38,1,0
thread block = 39,1,0
thread block = 40,1,0
thread block = 41,1,0
thread block = 42,1,0
thread block = 43,1,0
thread block = 44,1,0
thread block = 45,1,0
thread block = 46,1,0
thread block = 47,1,0
thread block = 48,1,0
thread block = 49,1,0
thread block = 50,1,0
thread block = 51,1,0
thread block = 52,1,0
thread block = 53,1,0
thread block = 54,1,0
thread block = 55,1,0
thread block = 56,1,0
thread block = 57,1,0
thread block = 58,1,0
thread block = 59,1,0
thread block = 60,1,0
thread block = 61,1,0
thread block = 62,1,0
thread block = 63,1,0
thread block = 64,1,0
thread block = 65,1,0
thread block = 66,1,0
thread block = 67,1,0
thread block = 68,1,0
thread block = 69,1,0
thread block = 70,1,0
thread block = 71,1,0
thread block = 72,1,0
thread block = 73,1,0
thread block = 74,1,0
thread block = 75,1,0
thread block = 76,1,0
thread block = 77,1,0
thread block = 78,1,0
thread block = 79,1,0
thread block = 80,1,0
thread block = 81,1,0
thread block = 82,1,0
thread block = 83,1,0
thread block = 84,1,0
thread block = 85,1,0
thread block = 0,2,0
thread block = 1,2,0
thread block = 2,2,0
thread block = 3,2,0
thread block = 4,2,0
thread block = 5,2,0
thread block = 6,2,0
thread block = 7,2,0
thread block = 8,2,0
thread block = 9,2,0
thread block = 10,2,0
thread block = 11,2,0
thread block = 12,2,0
thread block = 13,2,0
thread block = 14,2,0
thread block = 15,2,0
thread block = 16,2,0
thread block = 17,2,0
thread block = 18,2,0
thread block = 19,2,0
thread block = 20,2,0
thread block = 21,2,0
thread block = 22,2,0
thread block = 23,2,0
thread block = 24,2,0
thread block = 25,2,0
thread block = 26,2,0
thread block = 27,2,0
thread block = 28,2,0
thread block = 29,2,0
thread block = 30,2,0
thread block = 31,2,0
thread block = 32,2,0
thread block = 33,2,0
thread block = 34,2,0
thread block = 35,2,0
thread block = 36,2,0
thread block = 37,2,0
thread block = 38,2,0
thread block = 39,2,0
thread block = 40,2,0
thread block = 41,2,0
thread block = 42,2,0
thread block = 43,2,0
thread block = 44,2,0
thread block = 45,2,0
thread block = 46,2,0
thread block = 47,2,0
thread block = 48,2,0
thread block = 49,2,0
thread block = 50,2,0
thread block = 51,2,0
thread block = 52,2,0
thread block = 53,2,0
thread block = 54,2,0
thread block = 55,2,0
thread block = 56,2,0
thread block = 57,2,0
thread block = 58,2,0
thread block = 59,2,0
thread block = 60,2,0
thread block = 61,2,0
thread block = 62,2,0
thread block = 63,2,0
thread block = 64,2,0
thread block = 65,2,0
thread block = 66,2,0
thread block = 67,2,0
thread block = 68,2,0
thread block = 69,2,0
thread block = 70,2,0
thread block = 71,2,0
thread block = 72,2,0
thread block = 73,2,0
thread block = 74,2,0
thread block = 75,2,0
thread block = 76,2,0
thread block = 77,2,0
thread block = 78,2,0
thread block = 79,2,0
thread block = 80,2,0
thread block = 81,2,0
thread block = 82,2,0
thread block = 83,2,0
thread block = 84,2,0
thread block = 85,2,0
thread block = 0,3,0
thread block = 1,3,0
thread block = 2,3,0
thread block = 3,3,0
thread block = 4,3,0
thread block = 5,3,0
thread block = 6,3,0
thread block = 7,3,0
thread block = 8,3,0
thread block = 9,3,0
thread block = 10,3,0
thread block = 11,3,0
thread block = 12,3,0
thread block = 13,3,0
thread block = 14,3,0
thread block = 15,3,0
thread block = 16,3,0
thread block = 17,3,0
thread block = 18,3,0
thread block = 19,3,0
thread block = 20,3,0
thread block = 21,3,0
thread block = 22,3,0
thread block = 23,3,0
thread block = 24,3,0
thread block = 25,3,0
thread block = 26,3,0
thread block = 27,3,0
thread block = 28,3,0
thread block = 29,3,0
thread block = 30,3,0
thread block = 31,3,0
thread block = 32,3,0
thread block = 33,3,0
thread block = 34,3,0
thread block = 35,3,0
thread block = 36,3,0
thread block = 37,3,0
thread block = 38,3,0
thread block = 39,3,0
thread block = 40,3,0
thread block = 41,3,0
thread block = 42,3,0
thread block = 43,3,0
thread block = 44,3,0
thread block = 45,3,0
thread block = 46,3,0
thread block = 47,3,0
thread block = 48,3,0
thread block = 49,3,0
thread block = 50,3,0
thread block = 51,3,0
thread block = 52,3,0
thread block = 53,3,0
thread block = 54,3,0
thread block = 55,3,0
thread block = 56,3,0
thread block = 57,3,0
thread block = 58,3,0
thread block = 59,3,0
thread block = 60,3,0
thread block = 61,3,0
thread block = 62,3,0
thread block = 63,3,0
thread block = 64,3,0
thread block = 65,3,0
thread block = 66,3,0
thread block = 67,3,0
thread block = 68,3,0
thread block = 69,3,0
thread block = 70,3,0
thread block = 71,3,0
thread block = 72,3,0
thread block = 73,3,0
thread block = 74,3,0
thread block = 75,3,0
thread block = 76,3,0
thread block = 77,3,0
thread block = 78,3,0
thread block = 79,3,0
thread block = 80,3,0
thread block = 81,3,0
thread block = 82,3,0
thread block = 83,3,0
thread block = 84,3,0
thread block = 85,3,0
thread block = 0,4,0
thread block = 1,4,0
thread block = 2,4,0
thread block = 3,4,0
thread block = 4,4,0
thread block = 5,4,0
thread block = 6,4,0
thread block = 7,4,0
thread block = 8,4,0
thread block = 9,4,0
thread block = 10,4,0
thread block = 11,4,0
thread block = 12,4,0
thread block = 13,4,0
thread block = 14,4,0
thread block = 15,4,0
thread block = 16,4,0
thread block = 17,4,0
thread block = 18,4,0
thread block = 19,4,0
thread block = 20,4,0
thread block = 21,4,0
thread block = 22,4,0
thread block = 23,4,0
thread block = 24,4,0
thread block = 25,4,0
thread block = 26,4,0
thread block = 27,4,0
thread block = 28,4,0
thread block = 29,4,0
thread block = 30,4,0
thread block = 31,4,0
thread block = 32,4,0
thread block = 33,4,0
thread block = 34,4,0
thread block = 35,4,0
thread block = 36,4,0
thread block = 37,4,0
thread block = 38,4,0
thread block = 39,4,0
thread block = 40,4,0
thread block = 41,4,0
thread block = 42,4,0
thread block = 43,4,0
thread block = 44,4,0
thread block = 45,4,0
thread block = 46,4,0
thread block = 47,4,0
thread block = 48,4,0
thread block = 49,4,0
thread block = 50,4,0
thread block = 51,4,0
thread block = 52,4,0
thread block = 53,4,0
thread block = 54,4,0
thread block = 55,4,0
thread block = 56,4,0
thread block = 57,4,0
thread block = 58,4,0
thread block = 59,4,0
thread block = 60,4,0
thread block = 61,4,0
thread block = 62,4,0
thread block = 63,4,0
thread block = 64,4,0
thread block = 65,4,0
thread block = 66,4,0
thread block = 67,4,0
thread block = 68,4,0
thread block = 69,4,0
thread block = 70,4,0
thread block = 71,4,0
thread block = 72,4,0
thread block = 73,4,0
thread block = 74,4,0
thread block = 75,4,0
thread block = 76,4,0
thread block = 77,4,0
thread block = 78,4,0
thread block = 79,4,0
thread block = 80,4,0
thread block = 81,4,0
thread block = 82,4,0
thread block = 83,4,0
thread block = 84,4,0
thread block = 85,4,0
thread block = 0,5,0
thread block = 1,5,0
thread block = 2,5,0
thread block = 3,5,0
thread block = 4,5,0
thread block = 5,5,0
thread block = 6,5,0
thread block = 7,5,0
thread block = 8,5,0
thread block = 9,5,0
thread block = 10,5,0
thread block = 11,5,0
thread block = 12,5,0
thread block = 13,5,0
thread block = 14,5,0
thread block = 15,5,0
thread block = 16,5,0
thread block = 17,5,0
thread block = 18,5,0
thread block = 19,5,0
thread block = 20,5,0
thread block = 21,5,0
thread block = 22,5,0
thread block = 23,5,0
thread block = 24,5,0
thread block = 25,5,0
thread block = 26,5,0
thread block = 27,5,0
thread block = 28,5,0
thread block = 29,5,0
thread block = 30,5,0
thread block = 31,5,0
thread block = 32,5,0
thread block = 33,5,0
thread block = 34,5,0
thread block = 35,5,0
thread block = 36,5,0
thread block = 37,5,0
thread block = 38,5,0
thread block = 39,5,0
thread block = 40,5,0
thread block = 41,5,0
thread block = 42,5,0
thread block = 43,5,0
thread block = 44,5,0
thread block = 45,5,0
thread block = 46,5,0
thread block = 47,5,0
thread block = 48,5,0
thread block = 49,5,0
thread block = 50,5,0
thread block = 51,5,0
thread block = 52,5,0
thread block = 53,5,0
thread block = 54,5,0
thread block = 55,5,0
thread block = 56,5,0
thread block = 57,5,0
thread block = 58,5,0
thread block = 59,5,0
thread block = 60,5,0
thread block = 61,5,0
thread block = 62,5,0
thread block = 63,5,0
thread block = 64,5,0
thread block = 65,5,0
thread block = 66,5,0
thread block = 67,5,0
thread block = 68,5,0
thread block = 69,5,0
thread block = 70,5,0
thread block = 71,5,0
thread block = 72,5,0
thread block = 73,5,0
thread block = 74,5,0
thread block = 75,5,0
thread block = 76,5,0
thread block = 77,5,0
thread block = 78,5,0
thread block = 79,5,0
thread block = 80,5,0
thread block = 81,5,0
thread block = 82,5,0
thread block = 83,5,0
thread block = 84,5,0
thread block = 85,5,0
thread block = 0,6,0
thread block = 1,6,0
thread block = 2,6,0
thread block = 3,6,0
thread block = 4,6,0
thread block = 5,6,0
thread block = 6,6,0
thread block = 7,6,0
thread block = 8,6,0
thread block = 9,6,0
thread block = 10,6,0
thread block = 11,6,0
thread block = 12,6,0
thread block = 13,6,0
thread block = 14,6,0
thread block = 15,6,0
thread block = 16,6,0
thread block = 17,6,0
thread block = 18,6,0
thread block = 19,6,0
thread block = 20,6,0
thread block = 21,6,0
thread block = 22,6,0
thread block = 23,6,0
thread block = 24,6,0
thread block = 25,6,0
thread block = 26,6,0
thread block = 27,6,0
thread block = 28,6,0
thread block = 29,6,0
thread block = 30,6,0
thread block = 31,6,0
thread block = 32,6,0
thread block = 33,6,0
thread block = 34,6,0
thread block = 35,6,0
thread block = 36,6,0
thread block = 37,6,0
thread block = 38,6,0
thread block = 39,6,0
thread block = 40,6,0
thread block = 41,6,0
thread block = 42,6,0
thread block = 43,6,0
thread block = 44,6,0
thread block = 45,6,0
thread block = 46,6,0
thread block = 47,6,0
thread block = 48,6,0
thread block = 49,6,0
thread block = 50,6,0
thread block = 51,6,0
thread block = 52,6,0
thread block = 53,6,0
thread block = 54,6,0
thread block = 55,6,0
thread block = 56,6,0
thread block = 57,6,0
thread block = 58,6,0
thread block = 59,6,0
thread block = 60,6,0
thread block = 61,6,0
thread block = 62,6,0
thread block = 63,6,0
thread block = 64,6,0
thread block = 65,6,0
thread block = 66,6,0
thread block = 67,6,0
thread block = 68,6,0
thread block = 69,6,0
thread block = 70,6,0
thread block = 71,6,0
thread block = 72,6,0
thread block = 73,6,0
thread block = 74,6,0
thread block = 75,6,0
thread block = 76,6,0
thread block = 77,6,0
thread block = 78,6,0
thread block = 79,6,0
thread block = 80,6,0
thread block = 81,6,0
thread block = 82,6,0
thread block = 83,6,0
thread block = 84,6,0
thread block = 85,6,0
thread block = 0,7,0
thread block = 1,7,0
thread block = 2,7,0
thread block = 3,7,0
thread block = 4,7,0
thread block = 5,7,0
thread block = 6,7,0
thread block = 7,7,0
thread block = 8,7,0
thread block = 9,7,0
thread block = 10,7,0
thread block = 11,7,0
thread block = 12,7,0
thread block = 13,7,0
thread block = 14,7,0
thread block = 15,7,0
thread block = 16,7,0
thread block = 17,7,0
thread block = 18,7,0
thread block = 19,7,0
thread block = 20,7,0
thread block = 21,7,0
thread block = 22,7,0
thread block = 23,7,0
thread block = 24,7,0
thread block = 25,7,0
thread block = 26,7,0
thread block = 27,7,0
thread block = 28,7,0
thread block = 29,7,0
thread block = 30,7,0
thread block = 31,7,0
thread block = 32,7,0
thread block = 33,7,0
thread block = 34,7,0
thread block = 35,7,0
thread block = 36,7,0
thread block = 37,7,0
thread block = 38,7,0
thread block = 39,7,0
thread block = 40,7,0
thread block = 41,7,0
thread block = 42,7,0
thread block = 43,7,0
thread block = 44,7,0
thread block = 45,7,0
thread block = 46,7,0
thread block = 47,7,0
thread block = 48,7,0
thread block = 49,7,0
thread block = 50,7,0
thread block = 51,7,0
thread block = 52,7,0
thread block = 53,7,0
thread block = 54,7,0
thread block = 55,7,0
thread block = 56,7,0
thread block = 57,7,0
thread block = 58,7,0
thread block = 59,7,0
thread block = 60,7,0
thread block = 61,7,0
thread block = 62,7,0
thread block = 63,7,0
thread block = 64,7,0
thread block = 65,7,0
thread block = 66,7,0
thread block = 67,7,0
thread block = 68,7,0
thread block = 69,7,0
thread block = 70,7,0
thread block = 71,7,0
thread block = 72,7,0
thread block = 73,7,0
thread block = 74,7,0
thread block = 75,7,0
thread block = 76,7,0
thread block = 77,7,0
thread block = 78,7,0
thread block = 79,7,0
thread block = 80,7,0
thread block = 81,7,0
thread block = 82,7,0
thread block = 83,7,0
thread block = 84,7,0
thread block = 85,7,0
thread block = 0,8,0
thread block = 1,8,0
thread block = 2,8,0
thread block = 3,8,0
thread block = 4,8,0
thread block = 5,8,0
thread block = 6,8,0
thread block = 7,8,0
thread block = 8,8,0
thread block = 9,8,0
thread block = 10,8,0
thread block = 11,8,0
thread block = 12,8,0
thread block = 13,8,0
thread block = 14,8,0
thread block = 15,8,0
thread block = 16,8,0
thread block = 17,8,0
thread block = 18,8,0
thread block = 19,8,0
thread block = 20,8,0
thread block = 21,8,0
thread block = 22,8,0
thread block = 23,8,0
thread block = 24,8,0
thread block = 25,8,0
thread block = 26,8,0
thread block = 27,8,0
thread block = 28,8,0
thread block = 29,8,0
thread block = 30,8,0
thread block = 31,8,0
thread block = 32,8,0
thread block = 33,8,0
thread block = 34,8,0
thread block = 35,8,0
thread block = 36,8,0
thread block = 37,8,0
thread block = 38,8,0
thread block = 39,8,0
thread block = 40,8,0
thread block = 41,8,0
thread block = 42,8,0
thread block = 43,8,0
thread block = 44,8,0
thread block = 45,8,0
thread block = 46,8,0
thread block = 47,8,0
thread block = 48,8,0
thread block = 49,8,0
thread block = 50,8,0
thread block = 51,8,0
thread block = 52,8,0
thread block = 53,8,0
thread block = 54,8,0
thread block = 55,8,0
thread block = 56,8,0
thread block = 57,8,0
thread block = 58,8,0
thread block = 59,8,0
thread block = 60,8,0
thread block = 61,8,0
thread block = 62,8,0
thread block = 63,8,0
thread block = 64,8,0
thread block = 65,8,0
thread block = 66,8,0
thread block = 67,8,0
thread block = 68,8,0
thread block = 69,8,0
thread block = 70,8,0
thread block = 71,8,0
thread block = 72,8,0
thread block = 73,8,0
thread block = 74,8,0
thread block = 75,8,0
thread block = 76,8,0
thread block = 77,8,0
thread block = 78,8,0
thread block = 79,8,0
thread block = 80,8,0
thread block = 81,8,0
thread block = 82,8,0
thread block = 83,8,0
thread block = 84,8,0
thread block = 85,8,0
thread block = 0,9,0
thread block = 1,9,0
thread block = 2,9,0
thread block = 3,9,0
thread block = 4,9,0
thread block = 5,9,0
thread block = 6,9,0
thread block = 7,9,0
thread block = 8,9,0
thread block = 9,9,0
thread block = 10,9,0
thread block = 11,9,0
thread block = 12,9,0
thread block = 13,9,0
thread block = 14,9,0
thread block = 15,9,0
thread block = 16,9,0
thread block = 17,9,0
thread block = 18,9,0
thread block = 19,9,0
thread block = 20,9,0
thread block = 21,9,0
thread block = 22,9,0
thread block = 23,9,0
thread block = 24,9,0
thread block = 25,9,0
thread block = 26,9,0
thread block = 27,9,0
thread block = 28,9,0
thread block = 29,9,0
thread block = 30,9,0
thread block = 31,9,0
thread block = 32,9,0
thread block = 33,9,0
thread block = 34,9,0
thread block = 35,9,0
thread block = 36,9,0
thread block = 37,9,0
thread block = 38,9,0
thread block = 39,9,0
thread block = 40,9,0
thread block = 41,9,0
thread block = 42,9,0
thread block = 43,9,0
thread block = 44,9,0
thread block = 45,9,0
thread block = 46,9,0
thread block = 47,9,0
thread block = 48,9,0
thread block = 49,9,0
thread block = 50,9,0
thread block = 51,9,0
thread block = 52,9,0
thread block = 53,9,0
thread block = 54,9,0
thread block = 55,9,0
thread block = 56,9,0
thread block = 57,9,0
thread block = 58,9,0
thread block = 59,9,0
thread block = 60,9,0
thread block = 61,9,0
thread block = 62,9,0
thread block = 63,9,0
thread block = 64,9,0
thread block = 65,9,0
thread block = 66,9,0
thread block = 67,9,0
thread block = 68,9,0
thread block = 69,9,0
thread block = 70,9,0
thread block = 71,9,0
thread block = 72,9,0
thread block = 73,9,0
thread block = 74,9,0
thread block = 75,9,0
thread block = 76,9,0
thread block = 77,9,0
thread block = 78,9,0
thread block = 79,9,0
thread block = 80,9,0
thread block = 81,9,0
thread block = 82,9,0
thread block = 83,9,0
thread block = 84,9,0
thread block = 85,9,0
thread block = 0,10,0
thread block = 1,10,0
thread block = 2,10,0
thread block = 3,10,0
thread block = 4,10,0
thread block = 5,10,0
thread block = 6,10,0
thread block = 7,10,0
thread block = 8,10,0
thread block = 9,10,0
thread block = 10,10,0
thread block = 11,10,0
thread block = 12,10,0
thread block = 13,10,0
thread block = 14,10,0
thread block = 15,10,0
thread block = 16,10,0
thread block = 17,10,0
thread block = 18,10,0
thread block = 19,10,0
thread block = 20,10,0
thread block = 21,10,0
thread block = 22,10,0
thread block = 23,10,0
thread block = 24,10,0
thread block = 25,10,0
thread block = 26,10,0
thread block = 27,10,0
thread block = 28,10,0
thread block = 29,10,0
thread block = 30,10,0
thread block = 31,10,0
thread block = 32,10,0
thread block = 33,10,0
thread block = 34,10,0
thread block = 35,10,0
thread block = 36,10,0
thread block = 37,10,0
thread block = 38,10,0
thread block = 39,10,0
thread block = 40,10,0
thread block = 41,10,0
thread block = 42,10,0
thread block = 43,10,0
thread block = 44,10,0
thread block = 45,10,0
thread block = 46,10,0
thread block = 47,10,0
thread block = 48,10,0
thread block = 49,10,0
thread block = 50,10,0
thread block = 51,10,0
thread block = 52,10,0
thread block = 53,10,0
thread block = 54,10,0
thread block = 55,10,0
thread block = 56,10,0
thread block = 57,10,0
thread block = 58,10,0
thread block = 59,10,0
thread block = 60,10,0
thread block = 61,10,0
thread block = 62,10,0
thread block = 63,10,0
thread block = 64,10,0
thread block = 65,10,0
thread block = 66,10,0
thread block = 67,10,0
thread block = 68,10,0
thread block = 69,10,0
thread block = 70,10,0
thread block = 71,10,0
thread block = 72,10,0
thread block = 73,10,0
thread block = 74,10,0
thread block = 75,10,0
thread block = 76,10,0
thread block = 77,10,0
thread block = 78,10,0
thread block = 79,10,0
thread block = 80,10,0
thread block = 81,10,0
thread block = 82,10,0
thread block = 83,10,0
thread block = 84,10,0
thread block = 85,10,0
thread block = 0,11,0
thread block = 1,11,0
thread block = 2,11,0
thread block = 3,11,0
thread block = 4,11,0
thread block = 5,11,0
thread block = 6,11,0
thread block = 7,11,0
thread block = 8,11,0
thread block = 9,11,0
thread block = 10,11,0
thread block = 11,11,0
thread block = 12,11,0
thread block = 13,11,0
thread block = 14,11,0
thread block = 15,11,0
thread block = 16,11,0
thread block = 17,11,0
thread block = 18,11,0
thread block = 19,11,0
thread block = 20,11,0
thread block = 21,11,0
thread block = 22,11,0
thread block = 23,11,0
thread block = 24,11,0
thread block = 25,11,0
thread block = 26,11,0
thread block = 27,11,0
thread block = 28,11,0
thread block = 29,11,0
thread block = 30,11,0
thread block = 31,11,0
thread block = 32,11,0
thread block = 33,11,0
thread block = 34,11,0
thread block = 35,11,0
thread block = 36,11,0
thread block = 37,11,0
thread block = 38,11,0
thread block = 39,11,0
thread block = 40,11,0
thread block = 41,11,0
thread block = 42,11,0
thread block = 43,11,0
thread block = 44,11,0
thread block = 45,11,0
thread block = 46,11,0
thread block = 47,11,0
thread block = 48,11,0
thread block = 49,11,0
thread block = 50,11,0
thread block = 51,11,0
thread block = 52,11,0
thread block = 53,11,0
thread block = 54,11,0
thread block = 55,11,0
thread block = 56,11,0
thread block = 57,11,0
thread block = 58,11,0
thread block = 59,11,0
thread block = 60,11,0
thread block = 61,11,0
thread block = 62,11,0
thread block = 63,11,0
thread block = 64,11,0
thread block = 65,11,0
thread block = 66,11,0
thread block = 67,11,0
thread block = 68,11,0
thread block = 69,11,0
thread block = 70,11,0
thread block = 71,11,0
thread block = 72,11,0
thread block = 73,11,0
thread block = 74,11,0
thread block = 75,11,0
thread block = 76,11,0
thread block = 77,11,0
thread block = 78,11,0
thread block = 79,11,0
thread block = 80,11,0
thread block = 81,11,0
thread block = 82,11,0
thread block = 83,11,0
thread block = 84,11,0
thread block = 85,11,0
thread block = 0,12,0
thread block = 1,12,0
thread block = 2,12,0
thread block = 3,12,0
thread block = 4,12,0
thread block = 5,12,0
thread block = 6,12,0
thread block = 7,12,0
thread block = 8,12,0
thread block = 9,12,0
thread block = 10,12,0
thread block = 11,12,0
thread block = 12,12,0
thread block = 13,12,0
thread block = 14,12,0
thread block = 15,12,0
thread block = 16,12,0
thread block = 17,12,0
thread block = 18,12,0
thread block = 19,12,0
thread block = 20,12,0
thread block = 21,12,0
thread block = 22,12,0
thread block = 23,12,0
thread block = 24,12,0
thread block = 25,12,0
thread block = 26,12,0
thread block = 27,12,0
thread block = 28,12,0
thread block = 29,12,0
thread block = 30,12,0
thread block = 31,12,0
thread block = 32,12,0
thread block = 33,12,0
thread block = 34,12,0
thread block = 35,12,0
thread block = 36,12,0
thread block = 37,12,0
thread block = 38,12,0
thread block = 39,12,0
thread block = 40,12,0
thread block = 41,12,0
thread block = 42,12,0
thread block = 43,12,0
thread block = 44,12,0
thread block = 45,12,0
thread block = 46,12,0
thread block = 47,12,0
thread block = 48,12,0
thread block = 49,12,0
thread block = 50,12,0
thread block = 51,12,0
thread block = 52,12,0
thread block = 53,12,0
thread block = 54,12,0
thread block = 55,12,0
thread block = 56,12,0
thread block = 57,12,0
thread block = 58,12,0
thread block = 59,12,0
thread block = 60,12,0
thread block = 61,12,0
thread block = 62,12,0
thread block = 63,12,0
thread block = 64,12,0
thread block = 65,12,0
thread block = 66,12,0
thread block = 67,12,0
thread block = 68,12,0
thread block = 69,12,0
thread block = 70,12,0
thread block = 71,12,0
thread block = 72,12,0
thread block = 73,12,0
thread block = 74,12,0
thread block = 75,12,0
thread block = 76,12,0
thread block = 77,12,0
thread block = 78,12,0
thread block = 79,12,0
thread block = 80,12,0
thread block = 81,12,0
thread block = 82,12,0
thread block = 83,12,0
thread block = 84,12,0
thread block = 85,12,0
thread block = 0,13,0
thread block = 1,13,0
thread block = 2,13,0
thread block = 3,13,0
thread block = 4,13,0
thread block = 5,13,0
thread block = 6,13,0
thread block = 7,13,0
thread block = 8,13,0
thread block = 9,13,0
thread block = 10,13,0
thread block = 11,13,0
thread block = 12,13,0
thread block = 13,13,0
thread block = 14,13,0
thread block = 15,13,0
thread block = 16,13,0
thread block = 17,13,0
thread block = 18,13,0
thread block = 19,13,0
thread block = 20,13,0
thread block = 21,13,0
thread block = 22,13,0
thread block = 23,13,0
thread block = 24,13,0
thread block = 25,13,0
thread block = 26,13,0
thread block = 27,13,0
thread block = 28,13,0
thread block = 29,13,0
thread block = 30,13,0
thread block = 31,13,0
thread block = 32,13,0
thread block = 33,13,0
thread block = 34,13,0
thread block = 35,13,0
thread block = 36,13,0
thread block = 37,13,0
thread block = 38,13,0
thread block = 39,13,0
thread block = 40,13,0
thread block = 41,13,0
thread block = 42,13,0
thread block = 43,13,0
thread block = 44,13,0
thread block = 45,13,0
thread block = 46,13,0
thread block = 47,13,0
thread block = 48,13,0
thread block = 49,13,0
thread block = 50,13,0
thread block = 51,13,0
thread block = 52,13,0
thread block = 53,13,0
thread block = 54,13,0
thread block = 55,13,0
thread block = 56,13,0
thread block = 57,13,0
thread block = 58,13,0
thread block = 59,13,0
thread block = 60,13,0
thread block = 61,13,0
thread block = 62,13,0
thread block = 63,13,0
thread block = 64,13,0
thread block = 65,13,0
thread block = 66,13,0
thread block = 67,13,0
thread block = 68,13,0
thread block = 69,13,0
thread block = 70,13,0
thread block = 71,13,0
thread block = 72,13,0
thread block = 73,13,0
thread block = 74,13,0
thread block = 75,13,0
thread block = 76,13,0
thread block = 77,13,0
thread block = 78,13,0
thread block = 79,13,0
thread block = 80,13,0
thread block = 81,13,0
thread block = 82,13,0
thread block = 83,13,0
thread block = 84,13,0
thread block = 85,13,0
thread block = 0,14,0
thread block = 1,14,0
thread block = 2,14,0
thread block = 3,14,0
thread block = 4,14,0
thread block = 5,14,0
thread block = 6,14,0
thread block = 7,14,0
thread block = 8,14,0
thread block = 9,14,0
thread block = 10,14,0
thread block = 11,14,0
thread block = 12,14,0
thread block = 13,14,0
thread block = 14,14,0
thread block = 15,14,0
thread block = 16,14,0
thread block = 17,14,0
thread block = 18,14,0
thread block = 19,14,0
thread block = 20,14,0
thread block = 21,14,0
thread block = 22,14,0
thread block = 23,14,0
thread block = 24,14,0
thread block = 25,14,0
thread block = 26,14,0
thread block = 27,14,0
thread block = 28,14,0
thread block = 29,14,0
thread block = 30,14,0
thread block = 31,14,0
thread block = 32,14,0
thread block = 33,14,0
thread block = 34,14,0
thread block = 35,14,0
thread block = 36,14,0
thread block = 37,14,0
thread block = 38,14,0
thread block = 39,14,0
thread block = 40,14,0
thread block = 41,14,0
thread block = 42,14,0
thread block = 43,14,0
thread block = 44,14,0
thread block = 45,14,0
thread block = 46,14,0
thread block = 47,14,0
thread block = 48,14,0
thread block = 49,14,0
thread block = 50,14,0
thread block = 51,14,0
thread block = 52,14,0
thread block = 53,14,0
thread block = 54,14,0
thread block = 55,14,0
thread block = 56,14,0
thread block = 57,14,0
thread block = 58,14,0
thread block = 59,14,0
thread block = 60,14,0
thread block = 61,14,0
thread block = 62,14,0
thread block = 63,14,0
thread block = 64,14,0
thread block = 65,14,0
thread block = 66,14,0
thread block = 67,14,0
thread block = 68,14,0
thread block = 69,14,0
thread block = 70,14,0
thread block = 71,14,0
thread block = 72,14,0
thread block = 73,14,0
thread block = 74,14,0
thread block = 75,14,0
thread block = 76,14,0
thread block = 77,14,0
thread block = 78,14,0
thread block = 79,14,0
thread block = 80,14,0
thread block = 81,14,0
thread block = 82,14,0
thread block = 83,14,0
thread block = 84,14,0
thread block = 85,14,0
thread block = 0,15,0
thread block = 1,15,0
thread block = 2,15,0
thread block = 3,15,0
thread block = 4,15,0
thread block = 5,15,0
thread block = 6,15,0
thread block = 7,15,0
thread block = 8,15,0
thread block = 9,15,0
thread block = 10,15,0
thread block = 11,15,0
thread block = 12,15,0
thread block = 13,15,0
thread block = 14,15,0
thread block = 15,15,0
thread block = 16,15,0
thread block = 17,15,0
thread block = 18,15,0
thread block = 19,15,0
thread block = 20,15,0
thread block = 21,15,0
thread block = 22,15,0
thread block = 23,15,0
thread block = 24,15,0
thread block = 25,15,0
thread block = 26,15,0
thread block = 27,15,0
thread block = 28,15,0
thread block = 29,15,0
thread block = 30,15,0
thread block = 31,15,0
thread block = 32,15,0
thread block = 33,15,0
thread block = 34,15,0
thread block = 35,15,0
thread block = 36,15,0
thread block = 37,15,0
thread block = 38,15,0
thread block = 39,15,0
thread block = 40,15,0
thread block = 41,15,0
thread block = 42,15,0
thread block = 43,15,0
thread block = 44,15,0
thread block = 45,15,0
thread block = 46,15,0
thread block = 47,15,0
thread block = 48,15,0
thread block = 49,15,0
thread block = 50,15,0
thread block = 51,15,0
thread block = 52,15,0
thread block = 53,15,0
thread block = 54,15,0
thread block = 55,15,0
thread block = 56,15,0
thread block = 57,15,0
thread block = 58,15,0
thread block = 59,15,0
thread block = 60,15,0
thread block = 61,15,0
thread block = 62,15,0
thread block = 63,15,0
thread block = 64,15,0
thread block = 65,15,0
thread block = 66,15,0
thread block = 67,15,0
thread block = 68,15,0
thread block = 69,15,0
thread block = 70,15,0
thread block = 71,15,0
thread block = 72,15,0
thread block = 73,15,0
thread block = 74,15,0
thread block = 75,15,0
thread block = 76,15,0
thread block = 77,15,0
thread block = 78,15,0
thread block = 79,15,0
thread block = 80,15,0
thread block = 81,15,0
thread block = 82,15,0
thread block = 83,15,0
thread block = 84,15,0
thread block = 85,15,0
thread block = 0,16,0
thread block = 1,16,0
thread block = 2,16,0
thread block = 3,16,0
thread block = 4,16,0
thread block = 5,16,0
thread block = 6,16,0
thread block = 7,16,0
thread block = 8,16,0
thread block = 9,16,0
thread block = 10,16,0
thread block = 11,16,0
thread block = 12,16,0
thread block = 13,16,0
thread block = 14,16,0
thread block = 15,16,0
thread block = 16,16,0
thread block = 17,16,0
thread block = 18,16,0
thread block = 19,16,0
thread block = 20,16,0
thread block = 21,16,0
thread block = 22,16,0
thread block = 23,16,0
thread block = 24,16,0
thread block = 25,16,0
thread block = 26,16,0
thread block = 27,16,0
thread block = 28,16,0
thread block = 29,16,0
thread block = 30,16,0
thread block = 31,16,0
thread block = 32,16,0
thread block = 33,16,0
thread block = 34,16,0
thread block = 35,16,0
thread block = 36,16,0
thread block = 37,16,0
thread block = 38,16,0
thread block = 39,16,0
thread block = 40,16,0
thread block = 41,16,0
thread block = 42,16,0
thread block = 43,16,0
thread block = 44,16,0
thread block = 45,16,0
thread block = 46,16,0
thread block = 47,16,0
thread block = 48,16,0
thread block = 49,16,0
thread block = 50,16,0
thread block = 51,16,0
thread block = 52,16,0
thread block = 53,16,0
thread block = 54,16,0
thread block = 55,16,0
thread block = 56,16,0
thread block = 57,16,0
thread block = 58,16,0
thread block = 59,16,0
thread block = 60,16,0
thread block = 61,16,0
thread block = 62,16,0
thread block = 63,16,0
thread block = 64,16,0
thread block = 65,16,0
thread block = 66,16,0
thread block = 67,16,0
thread block = 68,16,0
thread block = 69,16,0
thread block = 70,16,0
thread block = 71,16,0
thread block = 72,16,0
thread block = 73,16,0
thread block = 74,16,0
thread block = 75,16,0
thread block = 76,16,0
thread block = 77,16,0
thread block = 78,16,0
thread block = 79,16,0
thread block = 80,16,0
thread block = 81,16,0
thread block = 82,16,0
thread block = 83,16,0
thread block = 84,16,0
thread block = 85,16,0
thread block = 0,17,0
thread block = 1,17,0
thread block = 2,17,0
thread block = 3,17,0
thread block = 4,17,0
thread block = 5,17,0
thread block = 6,17,0
thread block = 7,17,0
thread block = 8,17,0
thread block = 9,17,0
thread block = 10,17,0
thread block = 11,17,0
thread block = 12,17,0
thread block = 13,17,0
thread block = 14,17,0
thread block = 15,17,0
thread block = 16,17,0
thread block = 17,17,0
thread block = 18,17,0
thread block = 19,17,0
thread block = 20,17,0
thread block = 21,17,0
thread block = 22,17,0
thread block = 23,17,0
thread block = 24,17,0
thread block = 25,17,0
thread block = 26,17,0
thread block = 27,17,0
thread block = 28,17,0
thread block = 29,17,0
thread block = 30,17,0
thread block = 31,17,0
thread block = 32,17,0
thread block = 33,17,0
thread block = 34,17,0
thread block = 35,17,0
thread block = 36,17,0
thread block = 37,17,0
thread block = 38,17,0
thread block = 39,17,0
thread block = 40,17,0
thread block = 41,17,0
thread block = 42,17,0
thread block = 43,17,0
thread block = 44,17,0
thread block = 45,17,0
thread block = 46,17,0
thread block = 47,17,0
thread block = 48,17,0
thread block = 49,17,0
thread block = 50,17,0
thread block = 51,17,0
thread block = 52,17,0
thread block = 53,17,0
thread block = 54,17,0
thread block = 55,17,0
thread block = 56,17,0
thread block = 57,17,0
thread block = 58,17,0
thread block = 59,17,0
thread block = 60,17,0
thread block = 61,17,0
thread block = 62,17,0
thread block = 63,17,0
thread block = 64,17,0
thread block = 65,17,0
thread block = 66,17,0
thread block = 67,17,0
thread block = 68,17,0
thread block = 69,17,0
thread block = 70,17,0
thread block = 71,17,0
thread block = 72,17,0
thread block = 73,17,0
thread block = 74,17,0
thread block = 75,17,0
thread block = 76,17,0
thread block = 77,17,0
thread block = 78,17,0
thread block = 79,17,0
thread block = 80,17,0
thread block = 81,17,0
thread block = 82,17,0
thread block = 83,17,0
thread block = 84,17,0
thread block = 85,17,0
thread block = 0,18,0
thread block = 1,18,0
thread block = 2,18,0
thread block = 3,18,0
thread block = 4,18,0
thread block = 5,18,0
thread block = 6,18,0
thread block = 7,18,0
thread block = 8,18,0
thread block = 9,18,0
thread block = 10,18,0
thread block = 11,18,0
thread block = 12,18,0
thread block = 13,18,0
thread block = 14,18,0
thread block = 15,18,0
thread block = 16,18,0
thread block = 17,18,0
thread block = 18,18,0
thread block = 19,18,0
thread block = 20,18,0
thread block = 21,18,0
thread block = 22,18,0
thread block = 23,18,0
thread block = 24,18,0
thread block = 25,18,0
thread block = 26,18,0
thread block = 27,18,0
thread block = 28,18,0
thread block = 29,18,0
thread block = 30,18,0
thread block = 31,18,0
thread block = 32,18,0
thread block = 33,18,0
thread block = 34,18,0
thread block = 35,18,0
thread block = 36,18,0
thread block = 37,18,0
thread block = 38,18,0
thread block = 39,18,0
thread block = 40,18,0
thread block = 41,18,0
thread block = 42,18,0
thread block = 43,18,0
thread block = 44,18,0
thread block = 45,18,0
thread block = 46,18,0
thread block = 47,18,0
thread block = 48,18,0
thread block = 49,18,0
thread block = 50,18,0
thread block = 51,18,0
thread block = 52,18,0
thread block = 53,18,0
thread block = 54,18,0
thread block = 55,18,0
thread block = 56,18,0
thread block = 57,18,0
thread block = 58,18,0
thread block = 59,18,0
thread block = 60,18,0
thread block = 61,18,0
thread block = 62,18,0
thread block = 63,18,0
thread block = 64,18,0
thread block = 65,18,0
thread block = 66,18,0
thread block = 67,18,0
thread block = 68,18,0
thread block = 69,18,0
thread block = 70,18,0
thread block = 71,18,0
thread block = 72,18,0
thread block = 73,18,0
thread block = 74,18,0
thread block = 75,18,0
thread block = 76,18,0
thread block = 77,18,0
thread block = 78,18,0
thread block = 79,18,0
thread block = 80,18,0
thread block = 81,18,0
thread block = 82,18,0
thread block = 83,18,0
thread block = 84,18,0
thread block = 85,18,0
thread block = 0,19,0
thread block = 1,19,0
thread block = 2,19,0
thread block = 3,19,0
thread block = 4,19,0
thread block = 5,19,0
thread block = 6,19,0
thread block = 7,19,0
thread block = 8,19,0
thread block = 9,19,0
thread block = 10,19,0
thread block = 11,19,0
thread block = 12,19,0
thread block = 13,19,0
thread block = 14,19,0
thread block = 15,19,0
thread block = 16,19,0
thread block = 17,19,0
thread block = 18,19,0
thread block = 19,19,0
thread block = 20,19,0
thread block = 21,19,0
thread block = 22,19,0
thread block = 23,19,0
thread block = 24,19,0
thread block = 25,19,0
thread block = 26,19,0
thread block = 27,19,0
thread block = 28,19,0
thread block = 29,19,0
thread block = 30,19,0
thread block = 31,19,0
thread block = 32,19,0
thread block = 33,19,0
thread block = 34,19,0
thread block = 35,19,0
thread block = 36,19,0
thread block = 37,19,0
thread block = 38,19,0
thread block = 39,19,0
thread block = 40,19,0
thread block = 41,19,0
thread block = 42,19,0
thread block = 43,19,0
thread block = 44,19,0
thread block = 45,19,0
thread block = 46,19,0
thread block = 47,19,0
thread block = 48,19,0
thread block = 49,19,0
thread block = 50,19,0
thread block = 51,19,0
thread block = 52,19,0
thread block = 53,19,0
thread block = 54,19,0
thread block = 55,19,0
thread block = 56,19,0
thread block = 57,19,0
thread block = 58,19,0
thread block = 59,19,0
thread block = 60,19,0
thread block = 61,19,0
thread block = 62,19,0
thread block = 63,19,0
thread block = 64,19,0
thread block = 65,19,0
thread block = 66,19,0
thread block = 67,19,0
thread block = 68,19,0
thread block = 69,19,0
thread block = 70,19,0
thread block = 71,19,0
thread block = 72,19,0
thread block = 73,19,0
thread block = 74,19,0
thread block = 75,19,0
thread block = 76,19,0
thread block = 77,19,0
thread block = 78,19,0
thread block = 79,19,0
thread block = 80,19,0
thread block = 81,19,0
thread block = 82,19,0
thread block = 83,19,0
thread block = 84,19,0
thread block = 85,19,0
thread block = 0,20,0
thread block = 1,20,0
thread block = 2,20,0
thread block = 3,20,0
thread block = 4,20,0
thread block = 5,20,0
thread block = 6,20,0
thread block = 7,20,0
thread block = 8,20,0
thread block = 9,20,0
thread block = 10,20,0
thread block = 11,20,0
thread block = 12,20,0
thread block = 13,20,0
thread block = 14,20,0
thread block = 15,20,0
thread block = 16,20,0
thread block = 17,20,0
thread block = 18,20,0
thread block = 19,20,0
thread block = 20,20,0
thread block = 21,20,0
thread block = 22,20,0
thread block = 23,20,0
thread block = 24,20,0
thread block = 25,20,0
thread block = 26,20,0
thread block = 27,20,0
thread block = 28,20,0
thread block = 29,20,0
thread block = 30,20,0
thread block = 31,20,0
thread block = 32,20,0
thread block = 33,20,0
thread block = 34,20,0
thread block = 35,20,0
thread block = 36,20,0
thread block = 37,20,0
thread block = 38,20,0
thread block = 39,20,0
thread block = 40,20,0
thread block = 41,20,0
thread block = 42,20,0
thread block = 43,20,0
thread block = 44,20,0
thread block = 45,20,0
thread block = 46,20,0
thread block = 47,20,0
thread block = 48,20,0
thread block = 49,20,0
thread block = 50,20,0
thread block = 51,20,0
thread block = 52,20,0
thread block = 53,20,0
thread block = 54,20,0
thread block = 55,20,0
thread block = 56,20,0
thread block = 57,20,0
thread block = 58,20,0
thread block = 59,20,0
thread block = 60,20,0
thread block = 61,20,0
thread block = 62,20,0
thread block = 63,20,0
thread block = 64,20,0
thread block = 65,20,0
thread block = 66,20,0
thread block = 67,20,0
thread block = 68,20,0
thread block = 69,20,0
thread block = 70,20,0
thread block = 71,20,0
thread block = 72,20,0
thread block = 73,20,0
thread block = 74,20,0
thread block = 75,20,0
thread block = 76,20,0
thread block = 77,20,0
thread block = 78,20,0
thread block = 79,20,0
thread block = 80,20,0
thread block = 81,20,0
thread block = 82,20,0
thread block = 83,20,0
thread block = 84,20,0
thread block = 85,20,0
thread block = 0,21,0
thread block = 1,21,0
thread block = 2,21,0
thread block = 3,21,0
thread block = 4,21,0
thread block = 5,21,0
thread block = 6,21,0
thread block = 7,21,0
thread block = 8,21,0
thread block = 9,21,0
thread block = 10,21,0
thread block = 11,21,0
thread block = 12,21,0
thread block = 13,21,0
thread block = 14,21,0
thread block = 15,21,0
thread block = 16,21,0
thread block = 17,21,0
thread block = 18,21,0
thread block = 19,21,0
thread block = 20,21,0
thread block = 21,21,0
thread block = 22,21,0
thread block = 23,21,0
thread block = 24,21,0
thread block = 25,21,0
thread block = 26,21,0
thread block = 27,21,0
thread block = 28,21,0
thread block = 29,21,0
thread block = 30,21,0
thread block = 31,21,0
thread block = 32,21,0
thread block = 33,21,0
thread block = 34,21,0
thread block = 35,21,0
thread block = 36,21,0
thread block = 37,21,0
thread block = 38,21,0
thread block = 39,21,0
thread block = 40,21,0
thread block = 41,21,0
thread block = 42,21,0
thread block = 43,21,0
thread block = 44,21,0
thread block = 45,21,0
thread block = 46,21,0
thread block = 47,21,0
thread block = 48,21,0
thread block = 49,21,0
thread block = 50,21,0
thread block = 51,21,0
thread block = 52,21,0
thread block = 53,21,0
thread block = 54,21,0
thread block = 55,21,0
thread block = 56,21,0
thread block = 57,21,0
thread block = 58,21,0
thread block = 59,21,0
thread block = 60,21,0
thread block = 61,21,0
thread block = 62,21,0
thread block = 63,21,0
thread block = 64,21,0
thread block = 65,21,0
thread block = 66,21,0
thread block = 67,21,0
thread block = 68,21,0
thread block = 69,21,0
thread block = 70,21,0
thread block = 71,21,0
thread block = 72,21,0
thread block = 73,21,0
thread block = 74,21,0
thread block = 75,21,0
thread block = 76,21,0
thread block = 77,21,0
thread block = 78,21,0
thread block = 79,21,0
thread block = 80,21,0
thread block = 81,21,0
thread block = 82,21,0
thread block = 83,21,0
thread block = 84,21,0
thread block = 85,21,0
thread block = 0,22,0
thread block = 1,22,0
thread block = 2,22,0
thread block = 3,22,0
thread block = 4,22,0
thread block = 5,22,0
thread block = 6,22,0
thread block = 7,22,0
thread block = 8,22,0
thread block = 9,22,0
thread block = 10,22,0
thread block = 11,22,0
thread block = 12,22,0
thread block = 13,22,0
thread block = 14,22,0
thread block = 15,22,0
thread block = 16,22,0
thread block = 17,22,0
thread block = 18,22,0
thread block = 19,22,0
thread block = 20,22,0
thread block = 21,22,0
thread block = 22,22,0
thread block = 23,22,0
thread block = 24,22,0
thread block = 25,22,0
thread block = 26,22,0
thread block = 27,22,0
thread block = 28,22,0
thread block = 29,22,0
thread block = 30,22,0
thread block = 31,22,0
thread block = 32,22,0
thread block = 33,22,0
thread block = 34,22,0
thread block = 35,22,0
thread block = 36,22,0
thread block = 37,22,0
thread block = 38,22,0
thread block = 39,22,0
thread block = 40,22,0
thread block = 41,22,0
thread block = 42,22,0
thread block = 43,22,0
thread block = 44,22,0
thread block = 45,22,0
thread block = 46,22,0
thread block = 47,22,0
thread block = 48,22,0
thread block = 49,22,0
thread block = 50,22,0
thread block = 51,22,0
thread block = 52,22,0
thread block = 53,22,0
thread block = 54,22,0
thread block = 55,22,0
thread block = 56,22,0
thread block = 57,22,0
thread block = 58,22,0
thread block = 59,22,0
thread block = 60,22,0
thread block = 61,22,0
thread block = 62,22,0
thread block = 63,22,0
thread block = 64,22,0
thread block = 65,22,0
thread block = 66,22,0
thread block = 67,22,0
thread block = 68,22,0
thread block = 69,22,0
thread block = 70,22,0
thread block = 71,22,0
thread block = 72,22,0
thread block = 73,22,0
thread block = 74,22,0
thread block = 75,22,0
thread block = 76,22,0
thread block = 77,22,0
thread block = 78,22,0
thread block = 79,22,0
thread block = 80,22,0
thread block = 81,22,0
thread block = 82,22,0
thread block = 83,22,0
thread block = 84,22,0
thread block = 85,22,0
thread block = 0,23,0
thread block = 1,23,0
thread block = 2,23,0
thread block = 3,23,0
thread block = 4,23,0
thread block = 5,23,0
thread block = 6,23,0
thread block = 7,23,0
thread block = 8,23,0
thread block = 9,23,0
thread block = 10,23,0
thread block = 11,23,0
thread block = 12,23,0
thread block = 13,23,0
thread block = 14,23,0
thread block = 15,23,0
thread block = 16,23,0
thread block = 17,23,0
thread block = 18,23,0
thread block = 19,23,0
thread block = 20,23,0
thread block = 21,23,0
thread block = 22,23,0
thread block = 23,23,0
thread block = 24,23,0
thread block = 25,23,0
thread block = 26,23,0
thread block = 27,23,0
thread block = 28,23,0
thread block = 29,23,0
thread block = 30,23,0
thread block = 31,23,0
thread block = 32,23,0
thread block = 33,23,0
thread block = 34,23,0
thread block = 35,23,0
thread block = 36,23,0
thread block = 37,23,0
thread block = 38,23,0
thread block = 39,23,0
thread block = 40,23,0
thread block = 41,23,0
thread block = 42,23,0
thread block = 43,23,0
thread block = 44,23,0
thread block = 45,23,0
thread block = 46,23,0
thread block = 47,23,0
thread block = 48,23,0
thread block = 49,23,0
thread block = 50,23,0
thread block = 51,23,0
[...]
n_cmd=42127 n_nop=29736 n_act=1488 n_pre=1472 n_ref_event=0 n_req=8660 n_rd=8192 n_rd_L2_A=0 n_write=0 n_wr_bk=1872 bw_util=0.2389
n_activity=33830 dram_eff=0.2975
bk0: 512a 38691i bk1: 512a 38937i bk2: 512a 39018i bk3: 512a 38516i bk4: 512a 38720i bk5: 512a 38255i bk6: 512a 37821i bk7: 512a 38199i bk8: 512a 37953i bk9: 512a 37753i bk10: 512a 38160i bk11: 512a 38277i bk12: 512a 38152i bk13: 512a 38195i bk14: 512a 38360i bk15: 512a 38411i 

------------------------------------------------------------------------

Row_Buffer_Locality = 0.828176
Row_Buffer_Locality_read = 0.822754
Row_Buffer_Locality_write = 0.923077
Bank_Level_Parallism = 2.167658
Bank_Level_Parallism_Col = 1.722105
Bank_Level_Parallism_Ready = 1.083963
write_to_read_ratio_blp_rw_average = 0.154972
GrpLevelPara = 1.567080 

BW Util details:
bwutil = 0.238897 
total_CMD = 42127 
util_bw = 10064 
Wasted_Col = 15556 
Wasted_Row = 6338 
Idle = 10169 

BW Util Bottlenecks: 
RCDc_limit = 13442 
RCDWRc_limit = 210 
WTRc_limit = 3015 
RTWc_limit = 3454 
CCDLc_limit = 6027 
rwq = 0 
CCDLc_limit_alone = 4834 
WTRc_limit_alone = 2306 
RTWc_limit_alone = 2970 

Commands details: 
total_CMD = 42127 
n_nop = 29736 
Read = 8192 
Write = 0 
L2_Alloc = 0 
L2_WB = 1872 
n_act = 1488 
n_pre = 1472 
n_ref = 0 
n_req = 8660 
total_req = 10064 

Dual Bus Interface Util: 
issued_total_row = 2960 
issued_total_col = 10064 
Row_Bus_Util =  0.070264 
CoL_Bus_Util = 0.238897 
Either_Row_CoL_Bus_Util = 0.294134 
Issued_on_Two_Bus_Simul_Util = 0.015026 
issued_two_Eff = 0.051085 
queue_avg = 7.097704 


dram_util_bins: 0 0 0 0 0 0 0 0 0 0
dram_eff_bins: 0 0 0 0 0 0 0 0 0 0
mrqq: max=56 avg=7.0977
Memory Partition 29: 
Cache L2_bank_058:
MSHR contents

Cache L2_bank_059:
MSHR contents

In Dram Latency Queue (total = 0): 
DRAM[29]: 16 bks, busW=16 BL=2 CL=12, tRRD=3 tCCD=1, tRCD=12 tRAS=28 tRP=12 tRC=40
n_cmd=42127 n_nop=29752 n_act=1493 n_pre=1477 n_ref_event=0 n_req=8660 n_rd=8192 n_rd_L2_A=0 n_write=0 n_wr_bk=1872 bw_util=0.2389
n_activity=33517 dram_eff=0.3003
bk0: 512a 38544i bk1: 512a 38514i bk2: 512a 38583i bk3: 512a 38758i bk4: 512a 38585i bk5: 512a 38255i bk6: 512a 38074i bk7: 512a 38117i bk8: 512a 38242i bk9: 512a 37535i bk10: 512a 38042i bk11: 512a 38168i bk12: 512a 38283i bk13: 512a 37950i bk14: 512a 38483i bk15: 512a 38326i 

------------------------------------------------------------------------

Row_Buffer_Locality = 0.827598
Row_Buffer_Locality_read = 0.822021
Row_Buffer_Locality_write = 0.925214
Bank_Level_Parallism = 2.205602
Bank_Level_Parallism_Col = 1.769342
Bank_Level_Parallism_Ready = 1.099066
write_to_read_ratio_blp_rw_average = 0.165485
GrpLevelPara = 1.588495 

BW Util details:
bwutil = 0.238897 
total_CMD = 42127 
util_bw = 10064 
Wasted_Col = 15370 
Wasted_Row = 6409 
Idle = 10284 

BW Util Bottlenecks: 
RCDc_limit = 13276 
RCDWRc_limit = 198 
WTRc_limit = 2946 
RTWc_limit = 3880 
CCDLc_limit = 6083 
rwq = 0 
CCDLc_limit_alone = 4779 
WTRc_limit_alone = 2225 
RTWc_limit_alone = 3297 

Commands details: 
total_CMD = 42127 
n_nop = 29752 
Read = 8192 
Write = 0 
L2_Alloc = 0 
L2_WB = 1872 
n_act = 1493 
n_pre = 1477 
n_ref = 0 
n_req = 8660 
total_req = 10064 

Dual Bus Interface Util: 
issued_total_row = 2970 
issued_total_col = 10064 
Row_Bus_Util =  0.070501 
CoL_Bus_Util = 0.238897 
Either_Row_CoL_Bus_Util = 0.293755 
Issued_on_Two_Bus_Simul_Util = 0.015643 
issued_two_Eff = 0.053253 
queue_avg = 7.148598 


dram_util_bins: 0 0 0 0 0 0 0 0 0 0
dram_eff_bins: 0 0 0 0 0 0 0 0 0 0
mrqq: max=64 avg=7.1486
Memory Partition 30: 
Cache L2_bank_060:
MSHR contents

Cache L2_bank_061:
MSHR contents

In Dram Latency Queue (total = 0): 
DRAM[30]: 16 bks, busW=16 BL=2 CL=12, tRRD=3 tCCD=1, tRCD=12 tRAS=28 tRP=12 tRC=40
n_cmd=42127 n_nop=29716 n_act=1501 n_pre=1485 n_ref_event=0 n_req=8656 n_rd=8192 n_rd_L2_A=0 n_write=0 n_wr_bk=1856 bw_util=0.2385
n_activity=33872 dram_eff=0.2966
bk0: 512a 38594i bk1: 512a 38415i bk2: 512a 38722i bk3: 512a 38433i bk4: 512a 38384i bk5: 512a 38114i bk6: 512a 37964i bk7: 512a 38005i bk8: 512a 38084i bk9: 512a 38043i bk10: 512a 37912i bk11: 512a 37839i bk12: 512a 38155i bk13: 512a 38031i bk14: 512a 38095i bk15: 512a 38351i 

------------------------------------------------------------------------

Row_Buffer_Locality = 0.826594
Row_Buffer_Locality_read = 0.820557
Row_Buffer_Locality_write = 0.933190
Bank_Level_Parallism = 2.218512
Bank_Level_Parallism_Col = 1.802793
Bank_Level_Parallism_Ready = 1.096935
write_to_read_ratio_blp_rw_average = 0.159785
GrpLevelPara = 1.608708 

BW Util details:
bwutil = 0.238517 
total_CMD = 42127 
util_bw = 10048 
Wasted_Col = 15491 
Wasted_Row = 6711 
Idle = 9877 

BW Util Bottlenecks: 
RCDc_limit = 13646 
RCDWRc_limit = 190 
WTRc_limit = 2651 
RTWc_limit = 4454 
CCDLc_limit = 6013 
rwq = 0 
CCDLc_limit_alone = 4718 
WTRc_limit_alone = 2065 
RTWc_limit_alone = 3745 

Commands details: 
total_CMD = 42127 
n_nop = 29716 
Read = 8192 
Write = 0 
L2_Alloc = 0 
L2_WB = 1856 
n_act = 1501 
n_pre = 1485 
n_ref = 0 
n_req = 8656 
total_req = 10048 

Dual Bus Interface Util: 
issued_total_row = 2986 
issued_total_col = 10048 
Row_Bus_Util =  0.070881 
CoL_Bus_Util = 0.238517 
Either_Row_CoL_Bus_Util = 0.294609 
Issued_on_Two_Bus_Simul_Util = 0.014789 
issued_two_Eff = 0.050197 
queue_avg = 7.063498 


dram_util_bins: 0 0 0 0 0 0 0 0 0 0
dram_eff_bins: 0 0 0 0 0 0 0 0 0 0
mrqq: max=56 avg=7.0635
Memory Partition 31: 
Cache L2_bank_062:
MSHR contents

Cache L2_bank_063:
MSHR contents

In Dram Latency Queue (total = 0): 
DRAM[31]: 16 bks, busW=16 BL=2 CL=12, tRRD=3 tCCD=1, tRCD=12 tRAS=28 tRP=12 tRC=40
n_cmd=42127 n_nop=29819 n_act=1473 n_pre=1457 n_ref_event=0 n_req=8657 n_rd=8192 n_rd_L2_A=0 n_write=0 n_wr_bk=1860 bw_util=0.2386
n_activity=33758 dram_eff=0.2978
bk0: 512a 38616i bk1: 512a 38533i bk2: 512a 38999i bk3: 512a 38457i bk4: 512a 38477i bk5: 512a 38096i bk6: 512a 37842i bk7: 512a 38385i bk8: 512a 37831i bk9: 512a 37890i bk10: 512a 38052i bk11: 512a 38109i bk12: 512a 38551i bk13: 512a 38513i bk14: 512a 38300i bk15: 512a 38135i 

------------------------------------------------------------------------

Row_Buffer_Locality = 0.829849
Row_Buffer_Locality_read = 0.824219
Row_Buffer_Locality_write = 0.929032
Bank_Level_Parallism = 2.202085
Bank_Level_Parallism_Col = 1.782491
Bank_Level_Parallism_Ready = 1.092519
write_to_read_ratio_blp_rw_average = 0.161185
GrpLevelPara = 1.595120 

BW Util details:
bwutil = 0.238612 
total_CMD = 42127 
util_bw = 10052 
Wasted_Col = 15237 
Wasted_Row = 6455 
Idle = 10383 

BW Util Bottlenecks: 
RCDc_limit = 13281 
RCDWRc_limit = 198 
WTRc_limit = 2625 
RTWc_limit = 3923 
CCDLc_limit = 5743 
rwq = 0 
CCDLc_limit_alone = 4587 
WTRc_limit_alone = 2055 
RTWc_limit_alone = 3337 

Commands details: 
total_CMD = 42127 
n_nop = 29819 
Read = 8192 
Write = 0 
L2_Alloc = 0 
L2_WB = 1860 
n_act = 1473 
n_pre = 1457 
n_ref = 0 
n_req = 8657 
total_req = 10052 

Dual Bus Interface Util: 
issued_total_row = 2930 
issued_total_col = 10052 
Row_Bus_Util =  0.069552 
CoL_Bus_Util = 0.238612 
Either_Row_CoL_Bus_Util = 0.292164 
Issued_on_Two_Bus_Simul_Util = 0.015999 
issued_two_Eff = 0.054761 
queue_avg = 7.136753 


dram_util_bins: 0 0 0 0 0 0 0 0 0 0
dram_eff_bins: 0 0 0 0 0 0 0 0 0 0
mrqq: max=58 avg=7.13675

========= L2 cache stats =========
L2_cache_bank[0]: Access = 13590, Miss = 6832, Miss_rate = 0.503, Pending_hits = 2896, Reservation_fails = 0
L2_cache_bank[1]: Access = 13468, Miss = 6832, Miss_rate = 0.507, Pending_hits = 2893, Reservation_fails = 0
L2_cache_bank[2]: Access = 13598, Miss = 6832, Miss_rate = 0.502, Pending_hits = 2895, Reservation_fails = 0
L2_cache_bank[3]: Access = 13434, Miss = 6832, Miss_rate = 0.509, Pending_hits = 2937, Reservation_fails = 0
L2_cache_bank[4]: Access = 13582, Miss = 6832, Miss_rate = 0.503, Pending_hits = 2967, Reservation_fails = 0
L2_cache_bank[5]: Access = 13500, Miss = 6832, Miss_rate = 0.506, Pending_hits = 2891, Reservation_fails = 0
L2_cache_bank[6]: Access = 13618, Miss = 6832, Miss_rate = 0.502, Pending_hits = 2951, Reservation_fails = 0
L2_cache_bank[7]: Access = 13468, Miss = 6832, Miss_rate = 0.507, Pending_hits = 2824, Reservation_fails = 0
L2_cache_bank[8]: Access = 13578, Miss = 6832, Miss_rate = 0.503, Pending_hits = 2962, Reservation_fails = 0
L2_cache_bank[9]: Access = 13458, Miss = 6832, Miss_rate = 0.508, Pending_hits = 2790, Reservation_fails = 0
L2_cache_bank[10]: Access = 13568, Miss = 6832, Miss_rate = 0.504, Pending_hits = 2970, Reservation_fails = 0
L2_cache_bank[11]: Access = 13440, Miss = 6832, Miss_rate = 0.508, Pending_hits = 2862, Reservation_fails = 0
L2_cache_bank[12]: Access = 13602, Miss = 6832, Miss_rate = 0.502, Pending_hits = 2896, Reservation_fails = 0
L2_cache_bank[13]: Access = 13464, Miss = 6832, Miss_rate = 0.507, Pending_hits = 2765, Reservation_fails = 0
L2_cache_bank[14]: Access = 13606, Miss = 6832, Miss_rate = 0.502, Pending_hits = 2887, Reservation_fails = 0
L2_cache_bank[15]: Access = 13454, Miss = 6832, Miss_rate = 0.508, Pending_hits = 2749, Reservation_fails = 0
L2_cache_bank[16]: Access = 13630, Miss = 6832, Miss_rate = 0.501, Pending_hits = 2947, Reservation_fails = 0
L2_cache_bank[17]: Access = 13454, Miss = 6832, Miss_rate = 0.508, Pending_hits = 2913, Reservation_fails = 0
L2_cache_bank[18]: Access = 13616, Miss = 6832, Miss_rate = 0.502, Pending_hits = 2997, Reservation_fails = 0
L2_cache_bank[19]: Access = 13442, Miss = 6832, Miss_rate = 0.508, Pending_hits = 2978, Reservation_fails = 0
L2_cache_bank[20]: Access = 13614, Miss = 6832, Miss_rate = 0.502, Pending_hits = 2980, Reservation_fails = 0
L2_cache_bank[21]: Access = 13482, Miss = 6832, Miss_rate = 0.507, Pending_hits = 2909, Reservation_fails = 0
L2_cache_bank[22]: Access = 13608, Miss = 6832, Miss_rate = 0.502, Pending_hits = 2857, Reservation_fails = 0
L2_cache_bank[23]: Access = 13474, Miss = 6832, Miss_rate = 0.507, Pending_hits = 2988, Reservation_fails = 0
L2_cache_bank[24]: Access = 13628, Miss = 6832, Miss_rate = 0.501, Pending_hits = 3072, Reservation_fails = 0
L2_cache_bank[25]: Access = 13482, Miss = 6832, Miss_rate = 0.507, Pending_hits = 2853, Reservation_fails = 0
L2_cache_bank[26]: Access = 13612, Miss = 6832, Miss_rate = 0.502, Pending_hits = 2978, Reservation_fails = 0
L2_cache_bank[27]: Access = 13474, Miss = 6832, Miss_rate = 0.507, Pending_hits = 2960, Reservation_fails = 0
L2_cache_bank[28]: Access = 13584, Miss = 6832, Miss_rate = 0.503, Pending_hits = 2870, Reservation_fails = 0
L2_cache_bank[29]: Access = 13480, Miss = 6832, Miss_rate = 0.507, Pending_hits = 2889, Reservation_fails = 0
L2_cache_bank[30]: Access = 13596, Miss = 6832, Miss_rate = 0.503, Pending_hits = 2889, Reservation_fails = 0
L2_cache_bank[31]: Access = 13484, Miss = 6832, Miss_rate = 0.507, Pending_hits = 2908, Reservation_fails = 0
L2_cache_bank[32]: Access = 13590, Miss = 6832, Miss_rate = 0.503, Pending_hits = 2891, Reservation_fails = 0
L2_cache_bank[33]: Access = 13468, Miss = 6832, Miss_rate = 0.507, Pending_hits = 2913, Reservation_fails = 0
L2_cache_bank[34]: Access = 13598, Miss = 6832, Miss_rate = 0.502, Pending_hits = 2904, Reservation_fails = 0
L2_cache_bank[35]: Access = 13434, Miss = 6832, Miss_rate = 0.509, Pending_hits = 2949, Reservation_fails = 0
L2_cache_bank[36]: Access = 13582, Miss = 6832, Miss_rate = 0.503, Pending_hits = 2988, Reservation_fails = 0
L2_cache_bank[37]: Access = 13500, Miss = 6832, Miss_rate = 0.506, Pending_hits = 2877, Reservation_fails = 0
L2_cache_bank[38]: Access = 13618, Miss = 6832, Miss_rate = 0.502, Pending_hits = 2928, Reservation_fails = 0
L2_cache_bank[39]: Access = 13468, Miss = 6832, Miss_rate = 0.507, Pending_hits = 2851, Reservation_fails = 0
L2_cache_bank[40]: Access = 13578, Miss = 6832, Miss_rate = 0.503, Pending_hits = 2961, Reservation_fails = 0
L2_cache_bank[41]: Access = 13458, Miss = 6832, Miss_rate = 0.508, Pending_hits = 2792, Reservation_fails = 0
L2_cache_bank[42]: Access = 13568, Miss = 6832, Miss_rate = 0.504, Pending_hits = 2982, Reservation_fails = 0
L2_cache_bank[43]: Access = 13440, Miss = 6832, Miss_rate = 0.508, Pending_hits = 2878, Reservation_fails = 0
L2_cache_bank[44]: Access = 13602, Miss = 6832, Miss_rate = 0.502, Pending_hits = 2888, Reservation_fails = 0
L2_cache_bank[45]: Access = 13464, Miss = 6832, Miss_rate = 0.507, Pending_hits = 2791, Reservation_fails = 0
L2_cache_bank[46]: Access = 13606, Miss = 6832, Miss_rate = 0.502, Pending_hits = 2879, Reservation_fails = 0
L2_cache_bank[47]: Access = 13454, Miss = 6832, Miss_rate = 0.508, Pending_hits = 2775, Reservation_fails = 0
L2_cache_bank[48]: Access = 13630, Miss = 6832, Miss_rate = 0.501, Pending_hits = 2944, Reservation_fails = 0
L2_cache_bank[49]: Access = 13454, Miss = 6832, Miss_rate = 0.508, Pending_hits = 2890, Reservation_fails = 0
L2_cache_bank[50]: Access = 13616, Miss = 6832, Miss_rate = 0.502, Pending_hits = 3012, Reservation_fails = 0
L2_cache_bank[51]: Access = 13442, Miss = 6832, Miss_rate = 0.508, Pending_hits = 2972, Reservation_fails = 0
L2_cache_bank[52]: Access = 13614, Miss = 6832, Miss_rate = 0.502, Pending_hits = 2984, Reservation_fails = 0
L2_cache_bank[53]: Access = 13482, Miss = 6832, Miss_rate = 0.507, Pending_hits = 2913, Reservation_fails = 0
L2_cache_bank[54]: Access = 13608, Miss = 6832, Miss_rate = 0.502, Pending_hits = 2879, Reservation_fails = 0
L2_cache_bank[55]: Access = 13474, Miss = 6832, Miss_rate = 0.507, Pending_hits = 2984, Reservation_fails = 0
L2_cache_bank[56]: Access = 13628, Miss = 6832, Miss_rate = 0.501, Pending_hits = 3102, Reservation_fails = 0
L2_cache_bank[57]: Access = 13482, Miss = 6832, Miss_rate = 0.507, Pending_hits = 2840, Reservation_fails = 0
L2_cache_bank[58]: Access = 13612, Miss = 6832, Miss_rate = 0.502, Pending_hits = 2986, Reservation_fails = 0
L2_cache_bank[59]: Access = 13474, Miss = 6832, Miss_rate = 0.507, Pending_hits = 2968, Reservation_fails = 0
L2_cache_bank[60]: Access = 13584, Miss = 6832, Miss_rate = 0.503, Pending_hits = 2857, Reservation_fails = 0
L2_cache_bank[61]: Access = 13480, Miss = 6832, Miss_rate = 0.507, Pending_hits = 2893, Reservation_fails = 0
L2_cache_bank[62]: Access = 13596, Miss = 6832, Miss_rate = 0.503, Pending_hits = 2874, Reservation_fails = 0
L2_cache_bank[63]: Access = 13484, Miss = 6832, Miss_rate = 0.507, Pending_hits = 2911, Reservation_fails = 0
L2_total_cache_accesses = 866176
L2_total_cache_misses = 437248
L2_total_cache_miss_rate = 0.5048
L2_total_cache_pending_hits = 186379
L2_total_cache_reservation_fails = 0
L2_total_cache_breakdown:
	L2_cache_stats_breakdown[GLOBAL_ACC_R][HIT] = 242549
	L2_cache_stats_breakdown[GLOBAL_ACC_R][HIT_RESERVED] = 186379
	L2_cache_stats_breakdown[GLOBAL_ACC_R][MISS] = 65536
	L2_cache_stats_breakdown[GLOBAL_ACC_R][RESERVATION_FAIL] = 0
	L2_cache_stats_breakdown[GLOBAL_ACC_R][SECTOR_MISS] = 196608
	L2_cache_stats_breakdown[GLOBAL_ACC_R][MSHR_HIT] = 186379
	L2_cache_stats_breakdown[LOCAL_ACC_R][HIT] = 0
	L2_cache_stats_breakdown[LOCAL_ACC_R][HIT_RESERVED] = 0
	L2_cache_stats_breakdown[LOCAL_ACC_R][MISS] = 0
	L2_cache_stats_breakdown[LOCAL_ACC_R][RESERVATION_FAIL] = 0
	L2_cache_stats_breakdown[LOCAL_ACC_R][SECTOR_MISS] = 0
	L2_cache_stats_breakdown[LOCAL_ACC_R][MSHR_HIT] = 0
	L2_cache_stats_breakdown[CONST_ACC_R][HIT] = 0
	L2_cache_stats_breakdown[CONST_ACC_R][HIT_RESERVED] = 0
	L2_cache_stats_breakdown[CONST_ACC_R][MISS] = 0
	L2_cache_stats_breakdown[CONST_ACC_R][RESERVATION_FAIL] = 0
	L2_cache_stats_breakdown[CONST_ACC_R][SECTOR_MISS] = 0
	L2_cache_stats_breakdown[CONST_ACC_R][MSHR_HIT] = 0
	L2_cache_stats_breakdown[TEXTURE_ACC_R][HIT] = 0
	L2_cache_stats_breakdown[TEXTURE_ACC_R][HIT_RESERVED] = 0
	L2_cache_stats_breakdown[TEXTURE_ACC_R][MISS] = 0
	L2_cache_stats_breakdown[TEXTURE_ACC_R][RESERVATION_FAIL] = 0
	L2_cache_stats_breakdown[TEXTURE_ACC_R][SECTOR_MISS] = 0
	L2_cache_stats_breakdown[TEXTURE_ACC_R][MSHR_HIT] = 0
	L2_cache_stats_breakdown[GLOBAL_ACC_W][HIT] = 0
	L2_cache_stats_breakdown[GLOBAL_ACC_W][HIT_RESERVED] = 0
	L2_cache_stats_breakdown[GLOBAL_ACC_W][MISS] = 32768
	L2_cache_stats_breakdown[GLOBAL_ACC_W][RESERVATION_FAIL] = 0
	L2_cache_stats_breakdown[GLOBAL_ACC_W][SECTOR_MISS] = 142336
	L2_cache_stats_breakdown[GLOBAL_ACC_W][MSHR_HIT] = 0
	L2_cache_stats_breakdown[LOCAL_ACC_W][HIT] = 0
	L2_cache_stats_breakdown[LOCAL_ACC_W][HIT_RESERVED] = 0
	L2_cache_stats_breakdown[LOCAL_ACC_W][MISS] = 0
	L2_cache_stats_breakdown[LOCAL_ACC_W][RESERVATION_FAIL] = 0
	L2_cache_stats_breakdown[LOCAL_ACC_W][SECTOR_MISS] = 0
	L2_cache_stats_breakdown[LOCAL_ACC_W][MSHR_HIT] = 0
	L2_cache_stats_breakdown[L1_WRBK_ACC][HIT] = 0
	L2_cache_stats_breakdown[L1_WRBK_ACC][HIT_RESERVED] = 0
	L2_cache_stats_breakdown[L1_WRBK_ACC][MISS] = 0
	L2_cache_stats_breakdown[L1_WRBK_ACC][RESERVATION_FAIL] = 0
	L2_cache_stats_breakdown[L1_WRBK_ACC][SECTOR_MISS] = 0
	L2_cache_stats_breakdown[L1_WRBK_ACC][MSHR_HIT] = 0
	L2_cache_stats_breakdown[L2_WRBK_ACC][HIT] = 0
	L2_cache_stats_breakdown[L2_WRBK_ACC][HIT_RESERVED] = 0
	L2_cache_stats_breakdown[L2_WRBK_ACC][MISS] = 0
	L2_cache_stats_breakdown[L2_WRBK_ACC][RESERVATION_FAIL] = 0
	L2_cache_stats_breakdown[L2_WRBK_ACC][SECTOR_MISS] = 0
	L2_cache_stats_breakdown[L2_WRBK_ACC][MSHR_HIT] = 0
	L2_cache_stats_breakdown[INST_ACC_R][HIT] = 0
	L2_cache_stats_breakdown[INST_ACC_R][HIT_RESERVED] = 0
	L2_cache_stats_breakdown[INST_ACC_R][MISS] = 0
	L2_cache_stats_breakdown[INST_ACC_R][RESERVATION_FAIL] = 0
	L2_cache_stats_breakdown[INST_ACC_R][SECTOR_MISS] = 0
	L2_cache_stats_breakdown[INST_ACC_R][MSHR_HIT] = 0
	L2_cache_stats_breakdown[L1_WR_ALLOC_R][HIT] = 0
	L2_cache_stats_breakdown[L1_WR_ALLOC_R][HIT_RESERVED] = 0
	L2_cache_stats_breakdown[L1_WR_ALLOC_R][MISS] = 0
	L2_cache_stats_breakdown[L1_WR_ALLOC_R][RESERVATION_FAIL] = 0
	L2_cache_stats_breakdown[L1_WR_ALLOC_R][SECTOR_MISS] = 0
	L2_cache_stats_breakdown[L1_WR_ALLOC_R][MSHR_HIT] = 0
	L2_cache_stats_breakdown[L2_WR_ALLOC_R][HIT] = 0
	L2_cache_stats_breakdown[L2_WR_ALLOC_R][HIT_RESERVED] = 0
	L2_cache_stats_breakdown[L2_WR_ALLOC_R][MISS] = 0
	L2_cache_stats_breakdown[L2_WR_ALLOC_R][RESERVATION_FAIL] = 0
	L2_cache_stats_breakdown[L2_WR_ALLOC_R][SECTOR_MISS] = 0
	L2_cache_stats_breakdown[L2_WR_ALLOC_R][MSHR_HIT] = 0
	L2_cache_stats_breakdown[GLOBAL_ACC_R][TOTAL_ACCESS] = 877451
	L2_cache_stats_breakdown[GLOBAL_ACC_W][TOTAL_ACCESS] = 175104
L2_total_cache_reservation_fail_breakdown:
L2_cache_data_port_util = 0.073
L2_cache_fill_port_util = 0.073

icnt_total_pkts_mem_to_simt=866176
icnt_total_pkts_simt_to_mem=866176
LD_mem_lat_dist  0 0 0 0 0 0 0 0 0 0 0 0 0 0 0 0 0 0 0 0 0 0 0 0 0 0 0
ST_mem_lat_dist  0 0 0 0 0 0 0 0 0 0 0 0 0 0 0 0 0 0 0 0 0 0 0 0 0 0 0
----------------------------Interconnect-DETAILS--------------------------------
Req_Network_injected_packets_num = 866176
Req_Network_cycles = 56104
Req_Network_injected_packets_per_cycle =      15.4388 
Req_Network_conflicts_per_cycle =       5.5377
Req_Network_conflicts_per_cycle_util =       6.2066
Req_Bank_Level_Parallism =      17.3038
Req_Network_in_buffer_full_per_cycle =       0.0000
Req_Network_in_buffer_avg_util =       4.4529
Req_Network_out_buffer_full_per_cycle =       0.0000
Req_Network_out_buffer_avg_util =       0.2412

Reply_Network_injected_packets_num = 866176
Reply_Network_cycles = 56104
Reply_Network_injected_packets_per_cycle =       15.4388
Reply_Network_conflicts_per_cycle =        7.9159
Reply_Network_conflicts_per_cycle_util =       8.8700
Reply_Bank_Level_Parallism =      17.2996
Reply_Network_in_buffer_full_per_cycle =       0.0000
Reply_Network_in_buffer_avg_util =       0.5435
Reply_Network_out_buffer_full_per_cycle =       0.0000
Reply_Network_out_buffer_avg_util =       0.1930
----------------------------END-of-Interconnect-DETAILS-------------------------


gpgpu_simulation_time = 0 days, 0 hrs, 7 min, 17 sec (437 sec)
gpgpu_simulation_rate = 825209 (inst/sec)
gpgpu_simulation_rate = 128 (cycle/sec)
gpgpu_silicon_slowdown = 8843750x
GPGPU-Sim: *** simulation thread exiting ***
GPGPU-Sim: *** exit detected ***
