Skipping setup_environment - already set
doing: export -n PTX_SIM_USE_PTX_FILE
doing: export LD_LIBRARY_PATH=/home/min/a/devlinc/Documents/ECE60827/hardware-sim-assgn-2/hardware-simulation-assignment-2-texashodlr/util/job_launching/../../sim_run_9.1/gpgpu-sim-builds/accelsim-commit-a5339f56558d282e0ff48181156f07c28d32c1b6_modified_0.0:/home/min/a/devlinc/Documents/ECE60827/hardware-sim-assgn-2/hardware-simulation-assignment-2-texashodlr/gpu-simulator/gpgpu-sim/lib/gcc-8.3.0/cuda-9010/release:/home/min/a/devlinc/Documents/ECE60827/hardware-sim-assgn-2/hardware-simulation-assignment-2-texashodlr/gpu-simulator/gpgpu-sim/lib/gcc-8.3.0/cuda-9010/release:/package/gcc/8.3.0/lib64:
doing: cd /home/min/a/devlinc/Documents/ECE60827/hardware-sim-assgn-2/hardware-simulation-assignment-2-texashodlr/util/job_launching/../../sim_run_9.1/backprop-rodinia-3.1/65536/QV100-SASS-1B_INSN-8CLUSTER
doing: export OPENCL_CURRENT_TEST_PATH=/home/min/a/devlinc/Documents/ECE60827/hardware-sim-assgn-2/hardware-simulation-assignment-2-texashodlr/util/job_launching/../../sim_run_9.1/backprop-rodinia-3.1/65536/QV100-SASS-1B_INSN-8CLUSTER
doing: export OPENCL_REMOTE_GPU_HOST=REPLACE_REMOTE_HOST
doing 
doing: export PATH=/home/min/a/devlinc/Documents/ECE60827/hardware-sim-assgn-2/hardware-simulation-assignment-2-texashodlr/gpu-simulator/gpgpu-sim/bin:/home/min/a/ee695paa/cuda/bin:/home/min/a/ee695paa/cuda/bin:/home/min/a/ee695paa/cuda/bin:/package/gcc/8.3.0/bin:/usr/lib64/qt-3.3/bin:/usr/lib64/ccache:/usr/local/bin:/usr/bin:/usr/local/sbin:/usr/sbin:.
doing export CUDA_LAUNCH_BLOCKING=1
doing:  /home/min/a/devlinc/Documents/ECE60827/hardware-sim-assgn-2/hardware-simulation-assignment-2-texashodlr/util/job_launching/../../sim_run_9.1/gpgpu-sim-builds/accelsim-commit-a5339f56558d282e0ff48181156f07c28d32c1b6_modified_0.0/accel-sim.out  -config ./gpgpusim.config -trace ./traces/kernelslist.g
Accel-Sim [build accelsim-commit-a5339f56558d282e0ff48181156f07c28d32c1b6_modified_0.0]

        *** GPGPU-Sim Simulator Version 4.0.0  [build gpgpu-sim_git-commit-a5339f56558d282e0ff48181156f07c28d32c1b6_modified_0.0] ***


GPGPU-Sim: Configuration options:

-save_embedded_ptx                      0 # saves ptx files embedded in binary as <n>.ptx
-keep                                   0 # keep intermediate files created by GPGPU-Sim when interfacing with external programs
-gpgpu_ptx_save_converted_ptxplus                    0 # Saved converted ptxplus to a file
-gpgpu_occupancy_sm_number                   70 # The SM number to pass to ptxas when getting register usage for computing GPU occupancy. This parameter is required in the config.
-ptx_opcode_latency_int      4,13,4,5,145,21 # Opcode latencies for integers <ADD,MAX,MUL,MAD,DIV,SHFL>Default 1,1,19,25,145,32
-ptx_opcode_latency_fp          4,13,4,5,39 # Opcode latencies for single precision floating points <ADD,MAX,MUL,MAD,DIV>Default 1,1,1,1,30
-ptx_opcode_latency_dp         8,19,8,8,330 # Opcode latencies for double precision floating points <ADD,MAX,MUL,MAD,DIV>Default 8,8,8,8,335
-ptx_opcode_latency_sfu                  100 # Opcode latencies for SFU instructionsDefault 8
-ptx_opcode_latency_tesnor                   64 # Opcode latencies for Tensor instructionsDefault 64
-ptx_opcode_initiation_int          2,2,2,2,8,4 # Opcode initiation intervals for integers <ADD,MAX,MUL,MAD,DIV,SHFL>Default 1,1,4,4,32,4
-ptx_opcode_initiation_fp            2,2,2,2,4 # Opcode initiation intervals for single precision floating points <ADD,MAX,MUL,MAD,DIV>Default 1,1,1,1,5
-ptx_opcode_initiation_dp          4,4,4,4,130 # Opcode initiation intervals for double precision floating points <ADD,MAX,MUL,MAD,DIV>Default 8,8,8,8,130
-ptx_opcode_initiation_sfu                    8 # Opcode initiation intervals for sfu instructionsDefault 8
-ptx_opcode_initiation_tensor                   64 # Opcode initiation intervals for tensor instructionsDefault 64
-cdp_latency         7200,8000,100,12000,1600 # CDP API latency <cudaStreamCreateWithFlags, cudaGetParameterBufferV2_init_perWarp, cudaGetParameterBufferV2_perKernel, cudaLaunchDeviceV2_init_perWarp, cudaLaunchDevicV2_perKernel>Default 7200,8000,100,12000,1600
-network_mode                           2 # Interconnection network mode
-inter_config_file                   mesh # Interconnection network config file
-icnt_in_buffer_limit                  512 # in_buffer_limit
-icnt_out_buffer_limit                  512 # out_buffer_limit
-icnt_subnets                           2 # subnets
-icnt_arbiter_algo                      1 # arbiter_algo
-icnt_verbose                           0 # inct_verbose
-icnt_grant_cycles                      1 # grant_cycles
-gpgpu_ptx_use_cuobjdump                    1 # Use cuobjdump to extract ptx and sass from binaries
-gpgpu_experimental_lib_support                    0 # Try to extract code from cuda libraries [Broken because of unknown cudaGetExportTable]
-checkpoint_option                      0 #  checkpointing flag (0 = no checkpoint)
-checkpoint_kernel                      1 #  checkpointing during execution of which kernel (1- 1st kernel)
-checkpoint_CTA                         0 #  checkpointing after # of CTA (< less than total CTA)
-resume_option                          0 #  resume flag (0 = no resume)
-resume_kernel                          0 #  Resume from which kernel (1= 1st kernel)
-resume_CTA                             0 #  resume from which CTA 
-checkpoint_CTA_t                       0 #  resume from which CTA 
-checkpoint_insn_Y                      0 #  resume from which CTA 
-gpgpu_ptx_convert_to_ptxplus                    0 # Convert SASS (native ISA) to ptxplus and run ptxplus
-gpgpu_ptx_force_max_capability                   70 # Force maximum compute capability
-gpgpu_ptx_inst_debug_to_file                    0 # Dump executed instructions' debug information to file
-gpgpu_ptx_inst_debug_file       inst_debug.txt # Executed instructions' debug output file
-gpgpu_ptx_inst_debug_thread_uid                    1 # Thread UID for executed instructions' debug output
-gpgpu_simd_model                       1 # 1 = post-dominator
-gpgpu_shader_core_pipeline              2048:32 # shader core pipeline config, i.e., {<nthread>:<warpsize>}
-gpgpu_tex_cache:l1  N:4:128:256,L:R:m:N:L,T:512:8,128:2 # per-shader L1 texture cache  (READ-ONLY) config  {<nsets>:<bsize>:<assoc>,<rep>:<wr>:<alloc>:<wr_alloc>,<mshr>:<N>:<merge>,<mq>:<rf>}
-gpgpu_const_cache:l1 N:128:64:8,L:R:f:N:L,S:2:64,4 # per-shader L1 constant memory cache  (READ-ONLY) config  {<nsets>:<bsize>:<assoc>,<rep>:<wr>:<alloc>:<wr_alloc>,<mshr>:<N>:<merge>,<mq>} 
-gpgpu_cache:il1     N:64:128:16,L:R:f:N:L,S:2:48,4 # shader L1 instruction cache config  {<nsets>:<bsize>:<assoc>,<rep>:<wr>:<alloc>:<wr_alloc>,<mshr>:<N>:<merge>,<mq>} 
-gpgpu_cache:dl1     S:1:128:256,L:L:m:N:L,A:512:8,16:0,32 # per-shader L1 data cache config  {<nsets>:<bsize>:<assoc>,<rep>:<wr>:<alloc>:<wr_alloc>,<mshr>:<N>:<merge>,<mq> | none}
-gpgpu_l1_banks                         4 # The number of L1 cache banks
-gpgpu_l1_banks_byte_interleaving                   32 # l1 banks byte interleaving granularity
-gpgpu_l1_banks_hashing_function                    0 # l1 banks hashing function
-gpgpu_l1_latency                      20 # L1 Hit Latency
-gpgpu_smem_latency                    20 # smem Latency
-gpgpu_cache:dl1PrefL1                 none # per-shader L1 data cache config  {<nsets>:<bsize>:<assoc>,<rep>:<wr>:<alloc>:<wr_alloc>,<mshr>:<N>:<merge>,<mq> | none}
-gpgpu_cache:dl1PrefShared                 none # per-shader L1 data cache config  {<nsets>:<bsize>:<assoc>,<rep>:<wr>:<alloc>:<wr_alloc>,<mshr>:<N>:<merge>,<mq> | none}
-gpgpu_gmem_skip_L1D                    0 # global memory access skip L1D cache (implements -Xptxas -dlcm=cg, default=no skip)
-gpgpu_perfect_mem                      0 # enable perfect memory mode (no cache miss)
-n_regfile_gating_group                    4 # group of lanes that should be read/written together)
-gpgpu_clock_gated_reg_file                    0 # enable clock gated reg file for power calculations
-gpgpu_clock_gated_lanes                    0 # enable clock gated lanes for power calculations
-gpgpu_shader_registers                65536 # Number of registers per shader core. Limits number of concurrent CTAs. (default 8192)
-gpgpu_registers_per_block                65536 # Maximum number of registers per CTA. (default 8192)
-gpgpu_ignore_resources_limitation                    0 # gpgpu_ignore_resources_limitation (default 0)
-gpgpu_shader_cta                      32 # Maximum number of concurrent CTAs in shader (default 8)
-gpgpu_num_cta_barriers                   16 # Maximum number of named barriers per CTA (default 16)
-gpgpu_n_clusters                      80 # number of processing clusters
-gpgpu_n_cores_per_cluster                    8 # number of simd cores per cluster
-gpgpu_n_cluster_ejection_buffer_size                   32 # number of packets in ejection buffer
-gpgpu_n_ldst_response_buffer_size                    2 # number of response packets in ld/st unit ejection buffer
-gpgpu_shmem_per_block                65536 # Size of shared memory per thread block or CTA (default 48kB)
-gpgpu_shmem_size                   98304 # Size of shared memory per shader core (default 16kB)
-gpgpu_adaptive_cache_config                    1 # adaptive_cache_config
-gpgpu_shmem_sizeDefault                98304 # Size of shared memory per shader core (default 16kB)
-gpgpu_shmem_size_PrefL1                16384 # Size of shared memory per shader core (default 16kB)
-gpgpu_shmem_size_PrefShared                16384 # Size of shared memory per shader core (default 16kB)
-gpgpu_shmem_num_banks                   32 # Number of banks in the shared memory in each shader core (default 16)
-gpgpu_shmem_limited_broadcast                    0 # Limit shared memory to do one broadcast per cycle (default on)
-gpgpu_shmem_warp_parts                    1 # Number of portions a warp is divided into for shared memory bank conflict check 
-gpgpu_mem_unit_ports                    1 # The number of memory transactions allowed per core cycle
-gpgpu_shmem_warp_parts                    1 # Number of portions a warp is divided into for shared memory bank conflict check 
-gpgpu_warpdistro_shader                   -1 # Specify which shader core to collect the warp size distribution from
-gpgpu_warp_issue_shader                    0 # Specify which shader core to collect the warp issue distribution from
-gpgpu_local_mem_map                    1 # Mapping from local memory space address to simulated GPU physical address space (default = enabled)
-gpgpu_num_reg_banks                   16 # Number of register banks (default = 8)
-gpgpu_reg_bank_use_warp_id                    0 # Use warp ID in mapping registers to banks (default = off)
-gpgpu_sub_core_model                    1 # Sub Core Volta/Pascal model (default = off)
-gpgpu_enable_specialized_operand_collector                    0 # enable_specialized_operand_collector
-gpgpu_operand_collector_num_units_sp                    4 # number of collector units (default = 4)
-gpgpu_operand_collector_num_units_dp                    0 # number of collector units (default = 0)
-gpgpu_operand_collector_num_units_sfu                    4 # number of collector units (default = 4)
-gpgpu_operand_collector_num_units_int                    0 # number of collector units (default = 0)
-gpgpu_operand_collector_num_units_tensor_core                    4 # number of collector units (default = 4)
-gpgpu_operand_collector_num_units_mem                    2 # number of collector units (default = 2)
-gpgpu_operand_collector_num_units_gen                    8 # number of collector units (default = 0)
-gpgpu_operand_collector_num_in_ports_sp                    1 # number of collector unit in ports (default = 1)
-gpgpu_operand_collector_num_in_ports_dp                    0 # number of collector unit in ports (default = 0)
-gpgpu_operand_collector_num_in_ports_sfu                    1 # number of collector unit in ports (default = 1)
-gpgpu_operand_collector_num_in_ports_int                    0 # number of collector unit in ports (default = 0)
-gpgpu_operand_collector_num_in_ports_tensor_core                    1 # number of collector unit in ports (default = 1)
-gpgpu_operand_collector_num_in_ports_mem                    1 # number of collector unit in ports (default = 1)
-gpgpu_operand_collector_num_in_ports_gen                    8 # number of collector unit in ports (default = 0)
-gpgpu_operand_collector_num_out_ports_sp                    1 # number of collector unit in ports (default = 1)
-gpgpu_operand_collector_num_out_ports_dp                    0 # number of collector unit in ports (default = 0)
-gpgpu_operand_collector_num_out_ports_sfu                    1 # number of collector unit in ports (default = 1)
-gpgpu_operand_collector_num_out_ports_int                    0 # number of collector unit in ports (default = 0)
-gpgpu_operand_collector_num_out_ports_tensor_core                    1 # number of collector unit in ports (default = 1)
-gpgpu_operand_collector_num_out_ports_mem                    1 # number of collector unit in ports (default = 1)
-gpgpu_operand_collector_num_out_ports_gen                    8 # number of collector unit in ports (default = 0)
-gpgpu_coalesce_arch                   60 # Coalescing arch (GT200 = 13, Fermi = 20)
-gpgpu_num_sched_per_core                    4 # Number of warp schedulers per core
-gpgpu_max_insn_issue_per_warp                    1 # Max number of instructions that can be issued per warp in one cycle by scheduler (either 1 or 2)
-gpgpu_dual_issue_diff_exec_units                    1 # should dual issue use two different execution unit resources (Default = 1)
-gpgpu_simt_core_sim_order                    1 # Select the simulation order of cores in a cluster (0=Fix, 1=Round-Robin)
-gpgpu_pipeline_widths 4,4,4,4,4,4,4,4,4,4,8,4,4 # Pipeline widths ID_OC_SP,ID_OC_DP,ID_OC_INT,ID_OC_SFU,ID_OC_MEM,OC_EX_SP,OC_EX_DP,OC_EX_INT,OC_EX_SFU,OC_EX_MEM,EX_WB,ID_OC_TENSOR_CORE,OC_EX_TENSOR_CORE
-gpgpu_tensor_core_avail                    1 # Tensor Core Available (default=0)
-gpgpu_num_sp_units                     4 # Number of SP units (default=1)
-gpgpu_num_dp_units                     4 # Number of DP units (default=0)
-gpgpu_num_int_units                    4 # Number of INT units (default=0)
-gpgpu_num_sfu_units                    4 # Number of SF units (default=1)
-gpgpu_num_tensor_core_units                    4 # Number of tensor_core units (default=1)
-gpgpu_num_mem_units                    1 # Number if ldst units (default=1) WARNING: not hooked up to anything
-gpgpu_scheduler                      gto # Scheduler configuration: < lrr | gto | two_level_active > If two_level_active:<num_active_warps>:<inner_prioritization>:<outer_prioritization>For complete list of prioritization values see shader.h enum scheduler_prioritization_typeDefault: gto
-gpgpu_concurrent_kernel_sm                    0 # Support concurrent kernels on a SM (default = disabled)
-gpgpu_perfect_inst_const_cache                    1 # perfect inst and const cache mode, so all inst and const hits in the cache(default = disabled)
-gpgpu_inst_fetch_throughput                    4 # the number of fetched intruction per warp each cycle
-gpgpu_reg_file_port_throughput                    2 # the number ports of the register file
-specialized_unit_1         1,4,4,4,4,BRA # specialized unit config {<enabled>,<num_units>:<latency>:<initiation>,<ID_OC_SPEC>:<OC_EX_SPEC>,<NAME>}
-specialized_unit_2       1,4,200,4,4,TEX # specialized unit config {<enabled>,<num_units>:<latency>:<initiation>,<ID_OC_SPEC>:<OC_EX_SPEC>,<NAME>}
-specialized_unit_3      1,4,8,4,4,TENSOR # specialized unit config {<enabled>,<num_units>:<latency>:<initiation>,<ID_OC_SPEC>:<OC_EX_SPEC>,<NAME>}
-specialized_unit_4         0,4,4,4,4,BRA # specialized unit config {<enabled>,<num_units>:<latency>:<initiation>,<ID_OC_SPEC>:<OC_EX_SPEC>,<NAME>}
-specialized_unit_5         0,4,4,4,4,BRA # specialized unit config {<enabled>,<num_units>:<latency>:<initiation>,<ID_OC_SPEC>:<OC_EX_SPEC>,<NAME>}
-specialized_unit_6         0,4,4,4,4,BRA # specialized unit config {<enabled>,<num_units>:<latency>:<initiation>,<ID_OC_SPEC>:<OC_EX_SPEC>,<NAME>}
-specialized_unit_7         0,4,4,4,4,BRA # specialized unit config {<enabled>,<num_units>:<latency>:<initiation>,<ID_OC_SPEC>:<OC_EX_SPEC>,<NAME>}
-specialized_unit_8         0,4,4,4,4,BRA # specialized unit config {<enabled>,<num_units>:<latency>:<initiation>,<ID_OC_SPEC>:<OC_EX_SPEC>,<NAME>}
-gpgpu_perf_sim_memcpy                    1 # Fill the L2 cache on memcpy
-gpgpu_simple_dram_model                    0 # simple_dram_model with fixed latency and BW
-gpgpu_dram_scheduler                    1 # 0 = fifo, 1 = FR-FCFS (defaul)
-gpgpu_dram_partition_queues          64:64:64:64 # i2$:$2d:d2$:$2i
-l2_ideal                               0 # Use a ideal L2 cache that always hit
-gpgpu_cache:dl2     S:32:128:24,L:B:m:L:P,A:192:4,32:0,32 # unified banked L2 data cache config  {<nsets>:<bsize>:<assoc>,<rep>:<wr>:<alloc>:<wr_alloc>,<mshr>:<N>:<merge>,<mq>}
-gpgpu_cache:dl2_texture_only                    0 # L2 cache used for texture only
-gpgpu_n_mem                           32 # number of memory modules (e.g. memory controllers) in gpu
-gpgpu_n_sub_partition_per_mchannel                    2 # number of memory subpartition in each memory module
-gpgpu_n_mem_per_ctrlr                    1 # number of memory chips per memory controller
-gpgpu_memlatency_stat                   14 # track and display latency statistics 0x2 enables MC, 0x4 enables queue logs
-gpgpu_frfcfs_dram_sched_queue_size                   64 # 0 = unlimited (default); # entries per chip
-gpgpu_dram_return_queue_size                  192 # 0 = unlimited (default); # entries per chip
-gpgpu_dram_buswidth                   16 # default = 4 bytes (8 bytes per cycle at DDR)
-gpgpu_dram_burst_length                    2 # Burst length of each DRAM request (default = 4 data bus cycle)
-dram_data_command_freq_ratio                    2 # Frequency ratio between DRAM data bus and command bus (default = 2 times, i.e. DDR)
-gpgpu_dram_timing_opt nbk=16:CCD=1:RRD=3:RCD=12:RAS=28:RP=12:RC=40: CL=12:WL=2:CDLR=3:WR=10:nbkgrp=4:CCDL=2:RTPL=3 # DRAM timing parameters = {nbk:tCCD:tRRD:tRCD:tRAS:tRP:tRC:CL:WL:tCDLR:tWR:nbkgrp:tCCDL:tRTPL}
-gpgpu_l2_rop_latency                  160 # ROP queue latency (default 85)
-dram_latency                         100 # DRAM latency (default 30)
-dram_dual_bus_interface                    1 # dual_bus_interface (default = 0) 
-dram_bnk_indexing_policy                    0 # dram_bnk_indexing_policy (0 = normal indexing, 1 = Xoring with the higher bits) (Default = 0)
-dram_bnkgrp_indexing_policy                    1 # dram_bnkgrp_indexing_policy (0 = take higher bits, 1 = take lower bits) (Default = 0)
-dram_seperate_write_queue_enable                    0 # Seperate_Write_Queue_Enable
-dram_write_queue_size             32:28:16 # Write_Queue_Size
-dram_elimnate_rw_turnaround                    0 # elimnate_rw_turnaround i.e set tWTR and tRTW = 0
-icnt_flit_size                        40 # icnt_flit_size
-gpgpu_mem_addr_mapping dramid@8;00000000.00000000.00000000.00000000.0000RRRR.RRRRRRRR.RBBBCCCB.CCCSSSSS # mapping memory address to dram model {dramid@<start bit>;<memory address map>}
-gpgpu_mem_addr_test                    0 # run sweep test to check address mapping for aliased address
-gpgpu_mem_address_mask                    1 # 0 = old addressing mask, 1 = new addressing mask, 2 = new add. mask + flipped bank sel and chip sel bits
-gpgpu_memory_partition_indexing                    2 # 0 = no indexing, 1 = bitwise xoring, 2 = IPoly, 3 = custom indexing
-gpuwattch_xml_file         gpuwattch.xml # GPUWattch XML file
-power_simulation_enabled                    0 # Turn on power simulator (1=On, 0=Off)
-power_per_cycle_dump                    0 # Dump detailed power output each cycle
-power_trace_enabled                    0 # produce a file for the power trace (1=On, 0=Off)
-power_trace_zlevel                     6 # Compression level of the power trace output log (0=no comp, 9=highest)
-steady_power_levels_enabled                    0 # produce a file for the steady power levels (1=On, 0=Off)
-steady_state_definition                  8:4 # allowed deviation:number of samples
-gpgpu_max_cycle                        0 # terminates gpu simulation early (0 = no limit)
-gpgpu_max_insn                1000000000 # terminates gpu simulation early (0 = no limit)
-gpgpu_max_cta                          0 # terminates gpu simulation early (0 = no limit)
-gpgpu_max_completed_cta                    0 # terminates gpu simulation early (0 = no limit)
-gpgpu_runtime_stat                   500 # display runtime statistics such as dram utilization {<freq>:<flag>}
-liveness_message_freq                    1 # Minimum number of seconds between simulation liveness messages (0 = always print)
-gpgpu_compute_capability_major                    7 # Major compute capability version number
-gpgpu_compute_capability_minor                    0 # Minor compute capability version number
-gpgpu_flush_l1_cache                    1 # Flush L1 cache at the end of each kernel call
-gpgpu_flush_l2_cache                    0 # Flush L2 cache at the end of each kernel call
-gpgpu_deadlock_detect                    1 # Stop the simulation at deadlock (1=on (default), 0=off)
-gpgpu_ptx_instruction_classification                    0 # if enabled will classify ptx instruction types per kernel (Max 255 kernels now)
-gpgpu_ptx_sim_mode                     0 # Select between Performance (default) or Functional simulation (1)
-gpgpu_clock_domains 1132.0:1132.0:1132.0:850.0 # Clock Domain Frequencies in MhZ {<Core Clock>:<ICNT Clock>:<L2 Clock>:<DRAM Clock>}
-gpgpu_max_concurrent_kernel                    8 # maximum kernels that can run concurrently on GPU
-gpgpu_cflog_interval                    0 # Interval between each snapshot in control flow logger
-visualizer_enabled                     0 # Turn on visualizer output (1=On, 0=Off)
-visualizer_outputfile                 NULL # Specifies the output log file for visualizer
-visualizer_zlevel                      6 # Compression level of the visualizer output log (0=no comp, 9=highest)
-gpgpu_stack_size_limit                 1024 # GPU thread stack size
-gpgpu_heap_size_limit              8388608 # GPU malloc heap size 
-gpgpu_runtime_sync_depth_limit                    2 # GPU device runtime synchronize depth
-gpgpu_runtime_pending_launch_count_limit                 2048 # GPU device runtime pending launch count
-trace_enabled                          0 # Turn on traces
-trace_components                    none # comma seperated list of traces to enable. Complete list found in trace_streams.tup. Default none
-trace_sampling_core                    0 # The core which is printed using CORE_DPRINTF. Default 0
-trace_sampling_memory_partition                   -1 # The memory partition which is printed using MEMPART_DPRINTF. Default -1 (i.e. all)
-enable_ptx_file_line_stats                    1 # Turn on PTX source line statistic profiling. (1 = On)
-ptx_line_stats_filename gpgpu_inst_stats.txt # Output file for PTX source line statistics.
-gpgpu_kernel_launch_latency                 5000 # Kernel launch latency in cycles. Default: 0
-gpgpu_cdp_enabled                      0 # Turn on CDP
-gpgpu_TB_launch_latency                    0 # thread block launch latency in cycles. Default: 0
-trace               ./traces/kernelslist.g # traces kernel filetraces kernel file directory
-trace_opcode_latency_initiation_int                  4,2 # Opcode latencies and initiation for integers in trace driven mode <latency,initiation>
-trace_opcode_latency_initiation_sp                  4,2 # Opcode latencies and initiation for sp in trace driven mode <latency,initiation>
-trace_opcode_latency_initiation_dp                  8,4 # Opcode latencies and initiation for dp in trace driven mode <latency,initiation>
-trace_opcode_latency_initiation_sfu                 20,8 # Opcode latencies and initiation for sfu in trace driven mode <latency,initiation>
-trace_opcode_latency_initiation_tensor                  8,4 # Opcode latencies and initiation for tensor in trace driven mode <latency,initiation>
-trace_opcode_latency_initiation_spec_op_1                  4,4 # specialized unit config <latency,initiation>
-trace_opcode_latency_initiation_spec_op_2                200,4 # specialized unit config <latency,initiation>
-trace_opcode_latency_initiation_spec_op_3                  8,4 # specialized unit config <latency,initiation>
-trace_opcode_latency_initiation_spec_op_4                  4,4 # specialized unit config <latency,initiation>
-trace_opcode_latency_initiation_spec_op_5                  4,4 # specialized unit config <latency,initiation>
-trace_opcode_latency_initiation_spec_op_6                  4,4 # specialized unit config <latency,initiation>
-trace_opcode_latency_initiation_spec_op_7                  4,4 # specialized unit config <latency,initiation>
-trace_opcode_latency_initiation_spec_op_8                  4,4 # specialized unit config <latency,initiation>
DRAM Timing Options:
nbk                                    16 # number of banks
CCD                                     1 # column to column delay
RRD                                     3 # minimal delay between activation of rows in different banks
RCD                                    12 # row to column delay
RAS                                    28 # time needed to activate row
RP                                     12 # time needed to precharge (deactivate) row
RC                                     40 # row cycle time
CDLR                                    3 # switching from write to read (changes tWTR)
WR                                     10 # last data-in to row precharge
CL                                     12 # CAS latency
WL                                      2 # Write latency
nbkgrp                                  4 # number of bank groups
CCDL                                    2 # column to column delay between accesses to different bank groups
RTPL                                    3 # read to precharge delay between accesses to different bank groups
Total number of memory sub partition = 64
addr_dec_mask[CHIP]  = 0000000000001f00 	high:13 low:8
addr_dec_mask[BK]    = 00000000000e2000 	high:20 low:13
addr_dec_mask[ROW]   = 00000001fff00000 	high:33 low:20
addr_dec_mask[COL]   = 000000000001c0ff 	high:17 low:0
addr_dec_mask[BURST] = 000000000000001f 	high:5 low:0
sub_partition_id_mask = 0000000000002000
GPGPU-Sim uArch: clock freqs: 1132000000.000000:1132000000.000000:1132000000.000000:850000000.000000
GPGPU-Sim uArch: clock periods: 0.00000000088339222615:0.00000000088339222615:0.00000000088339222615:0.00000000117647058824
*** Initializing Memory Statistics ***
GPGPU-Sim uArch: performance model initialization complete.
launching memcpy command : MemcpyHtoD,0x00007f2f9b500000,262148
launching memcpy command : MemcpyHtoD,0x00007f2f9e000000,4456516
Processing kernel ./traces/kernel-1.traceg
-kernel name = _Z22bpnn_layerforward_CUDAPfS_S_S_ii
-kernel id = 1
-grid dim = (1,4096,1)
-block dim = (16,16,1)
-shmem = 1088
-nregs = 20
-binary version = 70
-cuda stream id = 0
-shmem base_addr = 0x00007f2fd3000000
-local mem base_addr = 0x00007f2fd1000000
-nvbit version = 1.5.3
-accelsim tracer version = 3
launching kernel command : ./traces/kernel-1.traceg
GPGPU-Sim uArch: Shader 0 bind to kernel 1 '_Z22bpnn_layerforward_CUDAPfS_S_S_ii'
GPGPU-Sim uArch: CTA/core = 8, limited by: threads
GPGPU-Sim: Reconfigure L1 cache to 120KB
thread block = 0,0,0
GPGPU-Sim uArch: Shader 8 bind to kernel 1 '_Z22bpnn_layerforward_CUDAPfS_S_S_ii'
thread block = 0,1,0
GPGPU-Sim uArch: Shader 16 bind to kernel 1 '_Z22bpnn_layerforward_CUDAPfS_S_S_ii'
thread block = 0,2,0
GPGPU-Sim uArch: Shader 24 bind to kernel 1 '_Z22bpnn_layerforward_CUDAPfS_S_S_ii'
thread block = 0,3,0
GPGPU-Sim uArch: Shader 32 bind to kernel 1 '_Z22bpnn_layerforward_CUDAPfS_S_S_ii'
thread block = 0,4,0
GPGPU-Sim uArch: Shader 40 bind to kernel 1 '_Z22bpnn_layerforward_CUDAPfS_S_S_ii'
thread block = 0,5,0
GPGPU-Sim uArch: Shader 48 bind to kernel 1 '_Z22bpnn_layerforward_CUDAPfS_S_S_ii'
thread block = 0,6,0
GPGPU-Sim uArch: Shader 56 bind to kernel 1 '_Z22bpnn_layerforward_CUDAPfS_S_S_ii'
thread block = 0,7,0
GPGPU-Sim uArch: Shader 64 bind to kernel 1 '_Z22bpnn_layerforward_CUDAPfS_S_S_ii'
thread block = 0,8,0
GPGPU-Sim uArch: Shader 72 bind to kernel 1 '_Z22bpnn_layerforward_CUDAPfS_S_S_ii'
thread block = 0,9,0
GPGPU-Sim uArch: Shader 80 bind to kernel 1 '_Z22bpnn_layerforward_CUDAPfS_S_S_ii'
thread block = 0,10,0
GPGPU-Sim uArch: Shader 88 bind to kernel 1 '_Z22bpnn_layerforward_CUDAPfS_S_S_ii'
thread block = 0,11,0
GPGPU-Sim uArch: Shader 96 bind to kernel 1 '_Z22bpnn_layerforward_CUDAPfS_S_S_ii'
thread block = 0,12,0
GPGPU-Sim uArch: Shader 104 bind to kernel 1 '_Z22bpnn_layerforward_CUDAPfS_S_S_ii'
thread block = 0,13,0
GPGPU-Sim uArch: Shader 112 bind to kernel 1 '_Z22bpnn_layerforward_CUDAPfS_S_S_ii'
thread block = 0,14,0
GPGPU-Sim uArch: Shader 120 bind to kernel 1 '_Z22bpnn_layerforward_CUDAPfS_S_S_ii'
thread block = 0,15,0
GPGPU-Sim uArch: Shader 128 bind to kernel 1 '_Z22bpnn_layerforward_CUDAPfS_S_S_ii'
thread block = 0,16,0
GPGPU-Sim uArch: Shader 136 bind to kernel 1 '_Z22bpnn_layerforward_CUDAPfS_S_S_ii'
thread block = 0,17,0
GPGPU-Sim uArch: Shader 144 bind to kernel 1 '_Z22bpnn_layerforward_CUDAPfS_S_S_ii'
thread block = 0,18,0
GPGPU-Sim uArch: Shader 152 bind to kernel 1 '_Z22bpnn_layerforward_CUDAPfS_S_S_ii'
thread block = 0,19,0
GPGPU-Sim uArch: Shader 160 bind to kernel 1 '_Z22bpnn_layerforward_CUDAPfS_S_S_ii'
thread block = 0,20,0
GPGPU-Sim uArch: Shader 168 bind to kernel 1 '_Z22bpnn_layerforward_CUDAPfS_S_S_ii'
thread block = 0,21,0
GPGPU-Sim uArch: Shader 176 bind to kernel 1 '_Z22bpnn_layerforward_CUDAPfS_S_S_ii'
thread block = 0,22,0
GPGPU-Sim uArch: Shader 184 bind to kernel 1 '_Z22bpnn_layerforward_CUDAPfS_S_S_ii'
thread block = 0,23,0
GPGPU-Sim uArch: Shader 192 bind to kernel 1 '_Z22bpnn_layerforward_CUDAPfS_S_S_ii'
thread block = 0,24,0
GPGPU-Sim uArch: Shader 200 bind to kernel 1 '_Z22bpnn_layerforward_CUDAPfS_S_S_ii'
thread block = 0,25,0
GPGPU-Sim uArch: Shader 208 bind to kernel 1 '_Z22bpnn_layerforward_CUDAPfS_S_S_ii'
thread block = 0,26,0
GPGPU-Sim uArch: Shader 216 bind to kernel 1 '_Z22bpnn_layerforward_CUDAPfS_S_S_ii'
thread block = 0,27,0
GPGPU-Sim uArch: Shader 224 bind to kernel 1 '_Z22bpnn_layerforward_CUDAPfS_S_S_ii'
thread block = 0,28,0
GPGPU-Sim uArch: Shader 232 bind to kernel 1 '_Z22bpnn_layerforward_CUDAPfS_S_S_ii'
thread block = 0,29,0
GPGPU-Sim uArch: Shader 240 bind to kernel 1 '_Z22bpnn_layerforward_CUDAPfS_S_S_ii'
thread block = 0,30,0
GPGPU-Sim uArch: Shader 248 bind to kernel 1 '_Z22bpnn_layerforward_CUDAPfS_S_S_ii'
thread block = 0,31,0
GPGPU-Sim uArch: Shader 256 bind to kernel 1 '_Z22bpnn_layerforward_CUDAPfS_S_S_ii'
thread block = 0,32,0
GPGPU-Sim uArch: Shader 264 bind to kernel 1 '_Z22bpnn_layerforward_CUDAPfS_S_S_ii'
thread block = 0,33,0
GPGPU-Sim uArch: Shader 272 bind to kernel 1 '_Z22bpnn_layerforward_CUDAPfS_S_S_ii'
thread block = 0,34,0
GPGPU-Sim uArch: Shader 280 bind to kernel 1 '_Z22bpnn_layerforward_CUDAPfS_S_S_ii'
thread block = 0,35,0
GPGPU-Sim uArch: Shader 288 bind to kernel 1 '_Z22bpnn_layerforward_CUDAPfS_S_S_ii'
thread block = 0,36,0
GPGPU-Sim uArch: Shader 296 bind to kernel 1 '_Z22bpnn_layerforward_CUDAPfS_S_S_ii'
thread block = 0,37,0
GPGPU-Sim uArch: Shader 304 bind to kernel 1 '_Z22bpnn_layerforward_CUDAPfS_S_S_ii'
thread block = 0,38,0
GPGPU-Sim uArch: Shader 312 bind to kernel 1 '_Z22bpnn_layerforward_CUDAPfS_S_S_ii'
thread block = 0,39,0
GPGPU-Sim uArch: Shader 320 bind to kernel 1 '_Z22bpnn_layerforward_CUDAPfS_S_S_ii'
thread block = 0,40,0
GPGPU-Sim uArch: Shader 328 bind to kernel 1 '_Z22bpnn_layerforward_CUDAPfS_S_S_ii'
thread block = 0,41,0
GPGPU-Sim uArch: Shader 336 bind to kernel 1 '_Z22bpnn_layerforward_CUDAPfS_S_S_ii'
thread block = 0,42,0
GPGPU-Sim uArch: Shader 344 bind to kernel 1 '_Z22bpnn_layerforward_CUDAPfS_S_S_ii'
thread block = 0,43,0
GPGPU-Sim uArch: Shader 352 bind to kernel 1 '_Z22bpnn_layerforward_CUDAPfS_S_S_ii'
thread block = 0,44,0
GPGPU-Sim uArch: Shader 360 bind to kernel 1 '_Z22bpnn_layerforward_CUDAPfS_S_S_ii'
thread block = 0,45,0
GPGPU-Sim uArch: Shader 368 bind to kernel 1 '_Z22bpnn_layerforward_CUDAPfS_S_S_ii'
thread block = 0,46,0
GPGPU-Sim uArch: Shader 376 bind to kernel 1 '_Z22bpnn_layerforward_CUDAPfS_S_S_ii'
thread block = 0,47,0
GPGPU-Sim uArch: Shader 384 bind to kernel 1 '_Z22bpnn_layerforward_CUDAPfS_S_S_ii'
thread block = 0,48,0
GPGPU-Sim uArch: Shader 392 bind to kernel 1 '_Z22bpnn_layerforward_CUDAPfS_S_S_ii'
thread block = 0,49,0
GPGPU-Sim uArch: Shader 400 bind to kernel 1 '_Z22bpnn_layerforward_CUDAPfS_S_S_ii'
thread block = 0,50,0
GPGPU-Sim uArch: Shader 408 bind to kernel 1 '_Z22bpnn_layerforward_CUDAPfS_S_S_ii'
thread block = 0,51,0
GPGPU-Sim uArch: Shader 416 bind to kernel 1 '_Z22bpnn_layerforward_CUDAPfS_S_S_ii'
thread block = 0,52,0
GPGPU-Sim uArch: Shader 424 bind to kernel 1 '_Z22bpnn_layerforward_CUDAPfS_S_S_ii'
thread block = 0,53,0
GPGPU-Sim uArch: Shader 432 bind to kernel 1 '_Z22bpnn_layerforward_CUDAPfS_S_S_ii'
thread block = 0,54,0
GPGPU-Sim uArch: Shader 440 bind to kernel 1 '_Z22bpnn_layerforward_CUDAPfS_S_S_ii'
thread block = 0,55,0
GPGPU-Sim uArch: Shader 448 bind to kernel 1 '_Z22bpnn_layerforward_CUDAPfS_S_S_ii'
thread block = 0,56,0
GPGPU-Sim uArch: Shader 456 bind to kernel 1 '_Z22bpnn_layerforward_CUDAPfS_S_S_ii'
thread block = 0,57,0
GPGPU-Sim uArch: Shader 464 bind to kernel 1 '_Z22bpnn_layerforward_CUDAPfS_S_S_ii'
thread block = 0,58,0
GPGPU-Sim uArch: Shader 472 bind to kernel 1 '_Z22bpnn_layerforward_CUDAPfS_S_S_ii'
thread block = 0,59,0
GPGPU-Sim uArch: Shader 480 bind to kernel 1 '_Z22bpnn_layerforward_CUDAPfS_S_S_ii'
thread block = 0,60,0
GPGPU-Sim uArch: Shader 488 bind to kernel 1 '_Z22bpnn_layerforward_CUDAPfS_S_S_ii'
thread block = 0,61,0
GPGPU-Sim uArch: Shader 496 bind to kernel 1 '_Z22bpnn_layerforward_CUDAPfS_S_S_ii'
thread block = 0,62,0
GPGPU-Sim uArch: Shader 504 bind to kernel 1 '_Z22bpnn_layerforward_CUDAPfS_S_S_ii'
thread block = 0,63,0
GPGPU-Sim uArch: Shader 512 bind to kernel 1 '_Z22bpnn_layerforward_CUDAPfS_S_S_ii'
thread block = 0,64,0
GPGPU-Sim uArch: Shader 520 bind to kernel 1 '_Z22bpnn_layerforward_CUDAPfS_S_S_ii'
thread block = 0,65,0
GPGPU-Sim uArch: Shader 528 bind to kernel 1 '_Z22bpnn_layerforward_CUDAPfS_S_S_ii'
thread block = 0,66,0
GPGPU-Sim uArch: Shader 536 bind to kernel 1 '_Z22bpnn_layerforward_CUDAPfS_S_S_ii'
thread block = 0,67,0
GPGPU-Sim uArch: Shader 544 bind to kernel 1 '_Z22bpnn_layerforward_CUDAPfS_S_S_ii'
thread block = 0,68,0
GPGPU-Sim uArch: Shader 552 bind to kernel 1 '_Z22bpnn_layerforward_CUDAPfS_S_S_ii'
thread block = 0,69,0
GPGPU-Sim uArch: Shader 560 bind to kernel 1 '_Z22bpnn_layerforward_CUDAPfS_S_S_ii'
thread block = 0,70,0
GPGPU-Sim uArch: Shader 568 bind to kernel 1 '_Z22bpnn_layerforward_CUDAPfS_S_S_ii'
thread block = 0,71,0
GPGPU-Sim uArch: Shader 576 bind to kernel 1 '_Z22bpnn_layerforward_CUDAPfS_S_S_ii'
thread block = 0,72,0
GPGPU-Sim uArch: Shader 584 bind to kernel 1 '_Z22bpnn_layerforward_CUDAPfS_S_S_ii'
thread block = 0,73,0
GPGPU-Sim uArch: Shader 592 bind to kernel 1 '_Z22bpnn_layerforward_CUDAPfS_S_S_ii'
thread block = 0,74,0
GPGPU-Sim uArch: Shader 600 bind to kernel 1 '_Z22bpnn_layerforward_CUDAPfS_S_S_ii'
thread block = 0,75,0
GPGPU-Sim uArch: Shader 608 bind to kernel 1 '_Z22bpnn_layerforward_CUDAPfS_S_S_ii'
thread block = 0,76,0
GPGPU-Sim uArch: Shader 616 bind to kernel 1 '_Z22bpnn_layerforward_CUDAPfS_S_S_ii'
thread block = 0,77,0
GPGPU-Sim uArch: Shader 624 bind to kernel 1 '_Z22bpnn_layerforward_CUDAPfS_S_S_ii'
thread block = 0,78,0
GPGPU-Sim uArch: Shader 632 bind to kernel 1 '_Z22bpnn_layerforward_CUDAPfS_S_S_ii'
thread block = 0,79,0
GPGPU-Sim uArch: Shader 1 bind to kernel 1 '_Z22bpnn_layerforward_CUDAPfS_S_S_ii'
thread block = 0,80,0
GPGPU-Sim uArch: Shader 9 bind to kernel 1 '_Z22bpnn_layerforward_CUDAPfS_S_S_ii'
thread block = 0,81,0
GPGPU-Sim uArch: Shader 17 bind to kernel 1 '_Z22bpnn_layerforward_CUDAPfS_S_S_ii'
thread block = 0,82,0
GPGPU-Sim uArch: Shader 25 bind to kernel 1 '_Z22bpnn_layerforward_CUDAPfS_S_S_ii'
thread block = 0,83,0
GPGPU-Sim uArch: Shader 33 bind to kernel 1 '_Z22bpnn_layerforward_CUDAPfS_S_S_ii'
thread block = 0,84,0
GPGPU-Sim uArch: Shader 41 bind to kernel 1 '_Z22bpnn_layerforward_CUDAPfS_S_S_ii'
thread block = 0,85,0
GPGPU-Sim uArch: Shader 49 bind to kernel 1 '_Z22bpnn_layerforward_CUDAPfS_S_S_ii'
thread block = 0,86,0
GPGPU-Sim uArch: Shader 57 bind to kernel 1 '_Z22bpnn_layerforward_CUDAPfS_S_S_ii'
thread block = 0,87,0
GPGPU-Sim uArch: Shader 65 bind to kernel 1 '_Z22bpnn_layerforward_CUDAPfS_S_S_ii'
thread block = 0,88,0
GPGPU-Sim uArch: Shader 73 bind to kernel 1 '_Z22bpnn_layerforward_CUDAPfS_S_S_ii'
thread block = 0,89,0
GPGPU-Sim uArch: Shader 81 bind to kernel 1 '_Z22bpnn_layerforward_CUDAPfS_S_S_ii'
thread block = 0,90,0
GPGPU-Sim uArch: Shader 89 bind to kernel 1 '_Z22bpnn_layerforward_CUDAPfS_S_S_ii'
thread block = 0,91,0
GPGPU-Sim uArch: Shader 97 bind to kernel 1 '_Z22bpnn_layerforward_CUDAPfS_S_S_ii'
thread block = 0,92,0
GPGPU-Sim uArch: Shader 105 bind to kernel 1 '_Z22bpnn_layerforward_CUDAPfS_S_S_ii'
thread block = 0,93,0
GPGPU-Sim uArch: Shader 113 bind to kernel 1 '_Z22bpnn_layerforward_CUDAPfS_S_S_ii'
thread block = 0,94,0
GPGPU-Sim uArch: Shader 121 bind to kernel 1 '_Z22bpnn_layerforward_CUDAPfS_S_S_ii'
thread block = 0,95,0
GPGPU-Sim uArch: Shader 129 bind to kernel 1 '_Z22bpnn_layerforward_CUDAPfS_S_S_ii'
thread block = 0,96,0
GPGPU-Sim uArch: Shader 137 bind to kernel 1 '_Z22bpnn_layerforward_CUDAPfS_S_S_ii'
thread block = 0,97,0
GPGPU-Sim uArch: Shader 145 bind to kernel 1 '_Z22bpnn_layerforward_CUDAPfS_S_S_ii'
thread block = 0,98,0
GPGPU-Sim uArch: Shader 153 bind to kernel 1 '_Z22bpnn_layerforward_CUDAPfS_S_S_ii'
thread block = 0,99,0
GPGPU-Sim uArch: Shader 161 bind to kernel 1 '_Z22bpnn_layerforward_CUDAPfS_S_S_ii'
thread block = 0,100,0
GPGPU-Sim uArch: Shader 169 bind to kernel 1 '_Z22bpnn_layerforward_CUDAPfS_S_S_ii'
thread block = 0,101,0
GPGPU-Sim uArch: Shader 177 bind to kernel 1 '_Z22bpnn_layerforward_CUDAPfS_S_S_ii'
thread block = 0,102,0
GPGPU-Sim uArch: Shader 185 bind to kernel 1 '_Z22bpnn_layerforward_CUDAPfS_S_S_ii'
thread block = 0,103,0
GPGPU-Sim uArch: Shader 193 bind to kernel 1 '_Z22bpnn_layerforward_CUDAPfS_S_S_ii'
thread block = 0,104,0
GPGPU-Sim uArch: Shader 201 bind to kernel 1 '_Z22bpnn_layerforward_CUDAPfS_S_S_ii'
thread block = 0,105,0
GPGPU-Sim uArch: Shader 209 bind to kernel 1 '_Z22bpnn_layerforward_CUDAPfS_S_S_ii'
thread block = 0,106,0
GPGPU-Sim uArch: Shader 217 bind to kernel 1 '_Z22bpnn_layerforward_CUDAPfS_S_S_ii'
thread block = 0,107,0
GPGPU-Sim uArch: Shader 225 bind to kernel 1 '_Z22bpnn_layerforward_CUDAPfS_S_S_ii'
thread block = 0,108,0
GPGPU-Sim uArch: Shader 233 bind to kernel 1 '_Z22bpnn_layerforward_CUDAPfS_S_S_ii'
thread block = 0,109,0
GPGPU-Sim uArch: Shader 241 bind to kernel 1 '_Z22bpnn_layerforward_CUDAPfS_S_S_ii'
thread block = 0,110,0
GPGPU-Sim uArch: Shader 249 bind to kernel 1 '_Z22bpnn_layerforward_CUDAPfS_S_S_ii'
thread block = 0,111,0
GPGPU-Sim uArch: Shader 257 bind to kernel 1 '_Z22bpnn_layerforward_CUDAPfS_S_S_ii'
thread block = 0,112,0
GPGPU-Sim uArch: Shader 265 bind to kernel 1 '_Z22bpnn_layerforward_CUDAPfS_S_S_ii'
thread block = 0,113,0
GPGPU-Sim uArch: Shader 273 bind to kernel 1 '_Z22bpnn_layerforward_CUDAPfS_S_S_ii'
thread block = 0,114,0
GPGPU-Sim uArch: Shader 281 bind to kernel 1 '_Z22bpnn_layerforward_CUDAPfS_S_S_ii'
thread block = 0,115,0
GPGPU-Sim uArch: Shader 289 bind to kernel 1 '_Z22bpnn_layerforward_CUDAPfS_S_S_ii'
thread block = 0,116,0
GPGPU-Sim uArch: Shader 297 bind to kernel 1 '_Z22bpnn_layerforward_CUDAPfS_S_S_ii'
thread block = 0,117,0
GPGPU-Sim uArch: Shader 305 bind to kernel 1 '_Z22bpnn_layerforward_CUDAPfS_S_S_ii'
thread block = 0,118,0
GPGPU-Sim uArch: Shader 313 bind to kernel 1 '_Z22bpnn_layerforward_CUDAPfS_S_S_ii'
thread block = 0,119,0
GPGPU-Sim uArch: Shader 321 bind to kernel 1 '_Z22bpnn_layerforward_CUDAPfS_S_S_ii'
thread block = 0,120,0
GPGPU-Sim uArch: Shader 329 bind to kernel 1 '_Z22bpnn_layerforward_CUDAPfS_S_S_ii'
thread block = 0,121,0
GPGPU-Sim uArch: Shader 337 bind to kernel 1 '_Z22bpnn_layerforward_CUDAPfS_S_S_ii'
thread block = 0,122,0
GPGPU-Sim uArch: Shader 345 bind to kernel 1 '_Z22bpnn_layerforward_CUDAPfS_S_S_ii'
thread block = 0,123,0
GPGPU-Sim uArch: Shader 353 bind to kernel 1 '_Z22bpnn_layerforward_CUDAPfS_S_S_ii'
thread block = 0,124,0
GPGPU-Sim uArch: Shader 361 bind to kernel 1 '_Z22bpnn_layerforward_CUDAPfS_S_S_ii'
thread block = 0,125,0
GPGPU-Sim uArch: Shader 369 bind to kernel 1 '_Z22bpnn_layerforward_CUDAPfS_S_S_ii'
thread block = 0,126,0
GPGPU-Sim uArch: Shader 377 bind to kernel 1 '_Z22bpnn_layerforward_CUDAPfS_S_S_ii'
thread block = 0,127,0
GPGPU-Sim uArch: Shader 385 bind to kernel 1 '_Z22bpnn_layerforward_CUDAPfS_S_S_ii'
thread block = 0,128,0
GPGPU-Sim uArch: Shader 393 bind to kernel 1 '_Z22bpnn_layerforward_CUDAPfS_S_S_ii'
thread block = 0,129,0
GPGPU-Sim uArch: Shader 401 bind to kernel 1 '_Z22bpnn_layerforward_CUDAPfS_S_S_ii'
thread block = 0,130,0
GPGPU-Sim uArch: Shader 409 bind to kernel 1 '_Z22bpnn_layerforward_CUDAPfS_S_S_ii'
thread block = 0,131,0
GPGPU-Sim uArch: Shader 417 bind to kernel 1 '_Z22bpnn_layerforward_CUDAPfS_S_S_ii'
thread block = 0,132,0
GPGPU-Sim uArch: Shader 425 bind to kernel 1 '_Z22bpnn_layerforward_CUDAPfS_S_S_ii'
thread block = 0,133,0
GPGPU-Sim uArch: Shader 433 bind to kernel 1 '_Z22bpnn_layerforward_CUDAPfS_S_S_ii'
thread block = 0,134,0
GPGPU-Sim uArch: Shader 441 bind to kernel 1 '_Z22bpnn_layerforward_CUDAPfS_S_S_ii'
thread block = 0,135,0
GPGPU-Sim uArch: Shader 449 bind to kernel 1 '_Z22bpnn_layerforward_CUDAPfS_S_S_ii'
thread block = 0,136,0
GPGPU-Sim uArch: Shader 457 bind to kernel 1 '_Z22bpnn_layerforward_CUDAPfS_S_S_ii'
thread block = 0,137,0
GPGPU-Sim uArch: Shader 465 bind to kernel 1 '_Z22bpnn_layerforward_CUDAPfS_S_S_ii'
thread block = 0,138,0
GPGPU-Sim uArch: Shader 473 bind to kernel 1 '_Z22bpnn_layerforward_CUDAPfS_S_S_ii'
thread block = 0,139,0
GPGPU-Sim uArch: Shader 481 bind to kernel 1 '_Z22bpnn_layerforward_CUDAPfS_S_S_ii'
thread block = 0,140,0
GPGPU-Sim uArch: Shader 489 bind to kernel 1 '_Z22bpnn_layerforward_CUDAPfS_S_S_ii'
thread block = 0,141,0
GPGPU-Sim uArch: Shader 497 bind to kernel 1 '_Z22bpnn_layerforward_CUDAPfS_S_S_ii'
thread block = 0,142,0
GPGPU-Sim uArch: Shader 505 bind to kernel 1 '_Z22bpnn_layerforward_CUDAPfS_S_S_ii'
thread block = 0,143,0
GPGPU-Sim uArch: Shader 513 bind to kernel 1 '_Z22bpnn_layerforward_CUDAPfS_S_S_ii'
thread block = 0,144,0
GPGPU-Sim uArch: Shader 521 bind to kernel 1 '_Z22bpnn_layerforward_CUDAPfS_S_S_ii'
thread block = 0,145,0
GPGPU-Sim uArch: Shader 529 bind to kernel 1 '_Z22bpnn_layerforward_CUDAPfS_S_S_ii'
thread block = 0,146,0
GPGPU-Sim uArch: Shader 537 bind to kernel 1 '_Z22bpnn_layerforward_CUDAPfS_S_S_ii'
thread block = 0,147,0
GPGPU-Sim uArch: Shader 545 bind to kernel 1 '_Z22bpnn_layerforward_CUDAPfS_S_S_ii'
thread block = 0,148,0
GPGPU-Sim uArch: Shader 553 bind to kernel 1 '_Z22bpnn_layerforward_CUDAPfS_S_S_ii'
thread block = 0,149,0
GPGPU-Sim uArch: Shader 561 bind to kernel 1 '_Z22bpnn_layerforward_CUDAPfS_S_S_ii'
thread block = 0,150,0
GPGPU-Sim uArch: Shader 569 bind to kernel 1 '_Z22bpnn_layerforward_CUDAPfS_S_S_ii'
thread block = 0,151,0
GPGPU-Sim uArch: Shader 577 bind to kernel 1 '_Z22bpnn_layerforward_CUDAPfS_S_S_ii'
thread block = 0,152,0
GPGPU-Sim uArch: Shader 585 bind to kernel 1 '_Z22bpnn_layerforward_CUDAPfS_S_S_ii'
thread block = 0,153,0
GPGPU-Sim uArch: Shader 593 bind to kernel 1 '_Z22bpnn_layerforward_CUDAPfS_S_S_ii'
thread block = 0,154,0
GPGPU-Sim uArch: Shader 601 bind to kernel 1 '_Z22bpnn_layerforward_CUDAPfS_S_S_ii'
thread block = 0,155,0
GPGPU-Sim uArch: Shader 609 bind to kernel 1 '_Z22bpnn_layerforward_CUDAPfS_S_S_ii'
thread block = 0,156,0
GPGPU-Sim uArch: Shader 617 bind to kernel 1 '_Z22bpnn_layerforward_CUDAPfS_S_S_ii'
thread block = 0,157,0
GPGPU-Sim uArch: Shader 625 bind to kernel 1 '_Z22bpnn_layerforward_CUDAPfS_S_S_ii'
thread block = 0,158,0
GPGPU-Sim uArch: Shader 633 bind to kernel 1 '_Z22bpnn_layerforward_CUDAPfS_S_S_ii'
thread block = 0,159,0
GPGPU-Sim uArch: Shader 2 bind to kernel 1 '_Z22bpnn_layerforward_CUDAPfS_S_S_ii'
thread block = 0,160,0
GPGPU-Sim uArch: Shader 10 bind to kernel 1 '_Z22bpnn_layerforward_CUDAPfS_S_S_ii'
thread block = 0,161,0
GPGPU-Sim uArch: Shader 18 bind to kernel 1 '_Z22bpnn_layerforward_CUDAPfS_S_S_ii'
thread block = 0,162,0
GPGPU-Sim uArch: Shader 26 bind to kernel 1 '_Z22bpnn_layerforward_CUDAPfS_S_S_ii'
thread block = 0,163,0
GPGPU-Sim uArch: Shader 34 bind to kernel 1 '_Z22bpnn_layerforward_CUDAPfS_S_S_ii'
thread block = 0,164,0
GPGPU-Sim uArch: Shader 42 bind to kernel 1 '_Z22bpnn_layerforward_CUDAPfS_S_S_ii'
thread block = 0,165,0
GPGPU-Sim uArch: Shader 50 bind to kernel 1 '_Z22bpnn_layerforward_CUDAPfS_S_S_ii'
thread block = 0,166,0
GPGPU-Sim uArch: Shader 58 bind to kernel 1 '_Z22bpnn_layerforward_CUDAPfS_S_S_ii'
thread block = 0,167,0
GPGPU-Sim uArch: Shader 66 bind to kernel 1 '_Z22bpnn_layerforward_CUDAPfS_S_S_ii'
thread block = 0,168,0
GPGPU-Sim uArch: Shader 74 bind to kernel 1 '_Z22bpnn_layerforward_CUDAPfS_S_S_ii'
thread block = 0,169,0
GPGPU-Sim uArch: Shader 82 bind to kernel 1 '_Z22bpnn_layerforward_CUDAPfS_S_S_ii'
thread block = 0,170,0
GPGPU-Sim uArch: Shader 90 bind to kernel 1 '_Z22bpnn_layerforward_CUDAPfS_S_S_ii'
thread block = 0,171,0
GPGPU-Sim uArch: Shader 98 bind to kernel 1 '_Z22bpnn_layerforward_CUDAPfS_S_S_ii'
thread block = 0,172,0
GPGPU-Sim uArch: Shader 106 bind to kernel 1 '_Z22bpnn_layerforward_CUDAPfS_S_S_ii'
thread block = 0,173,0
GPGPU-Sim uArch: Shader 114 bind to kernel 1 '_Z22bpnn_layerforward_CUDAPfS_S_S_ii'
thread block = 0,174,0
GPGPU-Sim uArch: Shader 122 bind to kernel 1 '_Z22bpnn_layerforward_CUDAPfS_S_S_ii'
thread block = 0,175,0
GPGPU-Sim uArch: Shader 130 bind to kernel 1 '_Z22bpnn_layerforward_CUDAPfS_S_S_ii'
thread block = 0,176,0
GPGPU-Sim uArch: Shader 138 bind to kernel 1 '_Z22bpnn_layerforward_CUDAPfS_S_S_ii'
thread block = 0,177,0
GPGPU-Sim uArch: Shader 146 bind to kernel 1 '_Z22bpnn_layerforward_CUDAPfS_S_S_ii'
thread block = 0,178,0
GPGPU-Sim uArch: Shader 154 bind to kernel 1 '_Z22bpnn_layerforward_CUDAPfS_S_S_ii'
thread block = 0,179,0
GPGPU-Sim uArch: Shader 162 bind to kernel 1 '_Z22bpnn_layerforward_CUDAPfS_S_S_ii'
thread block = 0,180,0
GPGPU-Sim uArch: Shader 170 bind to kernel 1 '_Z22bpnn_layerforward_CUDAPfS_S_S_ii'
thread block = 0,181,0
GPGPU-Sim uArch: Shader 178 bind to kernel 1 '_Z22bpnn_layerforward_CUDAPfS_S_S_ii'
thread block = 0,182,0
GPGPU-Sim uArch: Shader 186 bind to kernel 1 '_Z22bpnn_layerforward_CUDAPfS_S_S_ii'
thread block = 0,183,0
GPGPU-Sim uArch: Shader 194 bind to kernel 1 '_Z22bpnn_layerforward_CUDAPfS_S_S_ii'
thread block = 0,184,0
GPGPU-Sim uArch: Shader 202 bind to kernel 1 '_Z22bpnn_layerforward_CUDAPfS_S_S_ii'
thread block = 0,185,0
GPGPU-Sim uArch: Shader 210 bind to kernel 1 '_Z22bpnn_layerforward_CUDAPfS_S_S_ii'
thread block = 0,186,0
GPGPU-Sim uArch: Shader 218 bind to kernel 1 '_Z22bpnn_layerforward_CUDAPfS_S_S_ii'
thread block = 0,187,0
GPGPU-Sim uArch: Shader 226 bind to kernel 1 '_Z22bpnn_layerforward_CUDAPfS_S_S_ii'
thread block = 0,188,0
GPGPU-Sim uArch: Shader 234 bind to kernel 1 '_Z22bpnn_layerforward_CUDAPfS_S_S_ii'
thread block = 0,189,0
GPGPU-Sim uArch: Shader 242 bind to kernel 1 '_Z22bpnn_layerforward_CUDAPfS_S_S_ii'
thread block = 0,190,0
GPGPU-Sim uArch: Shader 250 bind to kernel 1 '_Z22bpnn_layerforward_CUDAPfS_S_S_ii'
thread block = 0,191,0
GPGPU-Sim uArch: Shader 258 bind to kernel 1 '_Z22bpnn_layerforward_CUDAPfS_S_S_ii'
thread block = 0,192,0
GPGPU-Sim uArch: Shader 266 bind to kernel 1 '_Z22bpnn_layerforward_CUDAPfS_S_S_ii'
thread block = 0,193,0
GPGPU-Sim uArch: Shader 274 bind to kernel 1 '_Z22bpnn_layerforward_CUDAPfS_S_S_ii'
thread block = 0,194,0
GPGPU-Sim uArch: Shader 282 bind to kernel 1 '_Z22bpnn_layerforward_CUDAPfS_S_S_ii'
thread block = 0,195,0
GPGPU-Sim uArch: Shader 290 bind to kernel 1 '_Z22bpnn_layerforward_CUDAPfS_S_S_ii'
thread block = 0,196,0
GPGPU-Sim uArch: Shader 298 bind to kernel 1 '_Z22bpnn_layerforward_CUDAPfS_S_S_ii'
thread block = 0,197,0
GPGPU-Sim uArch: Shader 306 bind to kernel 1 '_Z22bpnn_layerforward_CUDAPfS_S_S_ii'
thread block = 0,198,0
GPGPU-Sim uArch: Shader 314 bind to kernel 1 '_Z22bpnn_layerforward_CUDAPfS_S_S_ii'
thread block = 0,199,0
GPGPU-Sim uArch: Shader 322 bind to kernel 1 '_Z22bpnn_layerforward_CUDAPfS_S_S_ii'
thread block = 0,200,0
GPGPU-Sim uArch: Shader 330 bind to kernel 1 '_Z22bpnn_layerforward_CUDAPfS_S_S_ii'
thread block = 0,201,0
GPGPU-Sim uArch: Shader 338 bind to kernel 1 '_Z22bpnn_layerforward_CUDAPfS_S_S_ii'
thread block = 0,202,0
GPGPU-Sim uArch: Shader 346 bind to kernel 1 '_Z22bpnn_layerforward_CUDAPfS_S_S_ii'
thread block = 0,203,0
GPGPU-Sim uArch: Shader 354 bind to kernel 1 '_Z22bpnn_layerforward_CUDAPfS_S_S_ii'
thread block = 0,204,0
GPGPU-Sim uArch: Shader 362 bind to kernel 1 '_Z22bpnn_layerforward_CUDAPfS_S_S_ii'
thread block = 0,205,0
GPGPU-Sim uArch: Shader 370 bind to kernel 1 '_Z22bpnn_layerforward_CUDAPfS_S_S_ii'
thread block = 0,206,0
GPGPU-Sim uArch: Shader 378 bind to kernel 1 '_Z22bpnn_layerforward_CUDAPfS_S_S_ii'
thread block = 0,207,0
GPGPU-Sim uArch: Shader 386 bind to kernel 1 '_Z22bpnn_layerforward_CUDAPfS_S_S_ii'
thread block = 0,208,0
GPGPU-Sim uArch: Shader 394 bind to kernel 1 '_Z22bpnn_layerforward_CUDAPfS_S_S_ii'
thread block = 0,209,0
GPGPU-Sim uArch: Shader 402 bind to kernel 1 '_Z22bpnn_layerforward_CUDAPfS_S_S_ii'
thread block = 0,210,0
GPGPU-Sim uArch: Shader 410 bind to kernel 1 '_Z22bpnn_layerforward_CUDAPfS_S_S_ii'
thread block = 0,211,0
GPGPU-Sim uArch: Shader 418 bind to kernel 1 '_Z22bpnn_layerforward_CUDAPfS_S_S_ii'
thread block = 0,212,0
GPGPU-Sim uArch: Shader 426 bind to kernel 1 '_Z22bpnn_layerforward_CUDAPfS_S_S_ii'
thread block = 0,213,0
GPGPU-Sim uArch: Shader 434 bind to kernel 1 '_Z22bpnn_layerforward_CUDAPfS_S_S_ii'
thread block = 0,214,0
GPGPU-Sim uArch: Shader 442 bind to kernel 1 '_Z22bpnn_layerforward_CUDAPfS_S_S_ii'
thread block = 0,215,0
GPGPU-Sim uArch: Shader 450 bind to kernel 1 '_Z22bpnn_layerforward_CUDAPfS_S_S_ii'
thread block = 0,216,0
GPGPU-Sim uArch: Shader 458 bind to kernel 1 '_Z22bpnn_layerforward_CUDAPfS_S_S_ii'
thread block = 0,217,0
GPGPU-Sim uArch: Shader 466 bind to kernel 1 '_Z22bpnn_layerforward_CUDAPfS_S_S_ii'
thread block = 0,218,0
GPGPU-Sim uArch: Shader 474 bind to kernel 1 '_Z22bpnn_layerforward_CUDAPfS_S_S_ii'
thread block = 0,219,0
GPGPU-Sim uArch: Shader 482 bind to kernel 1 '_Z22bpnn_layerforward_CUDAPfS_S_S_ii'
thread block = 0,220,0
GPGPU-Sim uArch: Shader 490 bind to kernel 1 '_Z22bpnn_layerforward_CUDAPfS_S_S_ii'
thread block = 0,221,0
GPGPU-Sim uArch: Shader 498 bind to kernel 1 '_Z22bpnn_layerforward_CUDAPfS_S_S_ii'
thread block = 0,222,0
GPGPU-Sim uArch: Shader 506 bind to kernel 1 '_Z22bpnn_layerforward_CUDAPfS_S_S_ii'
thread block = 0,223,0
GPGPU-Sim uArch: Shader 514 bind to kernel 1 '_Z22bpnn_layerforward_CUDAPfS_S_S_ii'
thread block = 0,224,0
GPGPU-Sim uArch: Shader 522 bind to kernel 1 '_Z22bpnn_layerforward_CUDAPfS_S_S_ii'
thread block = 0,225,0
GPGPU-Sim uArch: Shader 530 bind to kernel 1 '_Z22bpnn_layerforward_CUDAPfS_S_S_ii'
thread block = 0,226,0
GPGPU-Sim uArch: Shader 538 bind to kernel 1 '_Z22bpnn_layerforward_CUDAPfS_S_S_ii'
thread block = 0,227,0
GPGPU-Sim uArch: Shader 546 bind to kernel 1 '_Z22bpnn_layerforward_CUDAPfS_S_S_ii'
thread block = 0,228,0
GPGPU-Sim uArch: Shader 554 bind to kernel 1 '_Z22bpnn_layerforward_CUDAPfS_S_S_ii'
thread block = 0,229,0
GPGPU-Sim uArch: Shader 562 bind to kernel 1 '_Z22bpnn_layerforward_CUDAPfS_S_S_ii'
thread block = 0,230,0
GPGPU-Sim uArch: Shader 570 bind to kernel 1 '_Z22bpnn_layerforward_CUDAPfS_S_S_ii'
thread block = 0,231,0
GPGPU-Sim uArch: Shader 578 bind to kernel 1 '_Z22bpnn_layerforward_CUDAPfS_S_S_ii'
thread block = 0,232,0
GPGPU-Sim uArch: Shader 586 bind to kernel 1 '_Z22bpnn_layerforward_CUDAPfS_S_S_ii'
thread block = 0,233,0
GPGPU-Sim uArch: Shader 594 bind to kernel 1 '_Z22bpnn_layerforward_CUDAPfS_S_S_ii'
thread block = 0,234,0
GPGPU-Sim uArch: Shader 602 bind to kernel 1 '_Z22bpnn_layerforward_CUDAPfS_S_S_ii'
thread block = 0,235,0
GPGPU-Sim uArch: Shader 610 bind to kernel 1 '_Z22bpnn_layerforward_CUDAPfS_S_S_ii'
thread block = 0,236,0
GPGPU-Sim uArch: Shader 618 bind to kernel 1 '_Z22bpnn_layerforward_CUDAPfS_S_S_ii'
thread block = 0,237,0
GPGPU-Sim uArch: Shader 626 bind to kernel 1 '_Z22bpnn_layerforward_CUDAPfS_S_S_ii'
thread block = 0,238,0
GPGPU-Sim uArch: Shader 634 bind to kernel 1 '_Z22bpnn_layerforward_CUDAPfS_S_S_ii'
thread block = 0,239,0
GPGPU-Sim uArch: Shader 3 bind to kernel 1 '_Z22bpnn_layerforward_CUDAPfS_S_S_ii'
thread block = 0,240,0
GPGPU-Sim uArch: Shader 11 bind to kernel 1 '_Z22bpnn_layerforward_CUDAPfS_S_S_ii'
thread block = 0,241,0
GPGPU-Sim uArch: Shader 19 bind to kernel 1 '_Z22bpnn_layerforward_CUDAPfS_S_S_ii'
thread block = 0,242,0
GPGPU-Sim uArch: Shader 27 bind to kernel 1 '_Z22bpnn_layerforward_CUDAPfS_S_S_ii'
thread block = 0,243,0
GPGPU-Sim uArch: Shader 35 bind to kernel 1 '_Z22bpnn_layerforward_CUDAPfS_S_S_ii'
thread block = 0,244,0
GPGPU-Sim uArch: Shader 43 bind to kernel 1 '_Z22bpnn_layerforward_CUDAPfS_S_S_ii'
thread block = 0,245,0
GPGPU-Sim uArch: Shader 51 bind to kernel 1 '_Z22bpnn_layerforward_CUDAPfS_S_S_ii'
thread block = 0,246,0
GPGPU-Sim uArch: Shader 59 bind to kernel 1 '_Z22bpnn_layerforward_CUDAPfS_S_S_ii'
thread block = 0,247,0
GPGPU-Sim uArch: Shader 67 bind to kernel 1 '_Z22bpnn_layerforward_CUDAPfS_S_S_ii'
thread block = 0,248,0
GPGPU-Sim uArch: Shader 75 bind to kernel 1 '_Z22bpnn_layerforward_CUDAPfS_S_S_ii'
thread block = 0,249,0
GPGPU-Sim uArch: Shader 83 bind to kernel 1 '_Z22bpnn_layerforward_CUDAPfS_S_S_ii'
thread block = 0,250,0
GPGPU-Sim uArch: Shader 91 bind to kernel 1 '_Z22bpnn_layerforward_CUDAPfS_S_S_ii'
thread block = 0,251,0
GPGPU-Sim uArch: Shader 99 bind to kernel 1 '_Z22bpnn_layerforward_CUDAPfS_S_S_ii'
thread block = 0,252,0
GPGPU-Sim uArch: Shader 107 bind to kernel 1 '_Z22bpnn_layerforward_CUDAPfS_S_S_ii'
thread block = 0,253,0
GPGPU-Sim uArch: Shader 115 bind to kernel 1 '_Z22bpnn_layerforward_CUDAPfS_S_S_ii'
thread block = 0,254,0
GPGPU-Sim uArch: Shader 123 bind to kernel 1 '_Z22bpnn_layerforward_CUDAPfS_S_S_ii'
thread block = 0,255,0
GPGPU-Sim uArch: Shader 131 bind to kernel 1 '_Z22bpnn_layerforward_CUDAPfS_S_S_ii'
thread block = 0,256,0
GPGPU-Sim uArch: Shader 139 bind to kernel 1 '_Z22bpnn_layerforward_CUDAPfS_S_S_ii'
thread block = 0,257,0
GPGPU-Sim uArch: Shader 147 bind to kernel 1 '_Z22bpnn_layerforward_CUDAPfS_S_S_ii'
thread block = 0,258,0
GPGPU-Sim uArch: Shader 155 bind to kernel 1 '_Z22bpnn_layerforward_CUDAPfS_S_S_ii'
thread block = 0,259,0
GPGPU-Sim uArch: Shader 163 bind to kernel 1 '_Z22bpnn_layerforward_CUDAPfS_S_S_ii'
thread block = 0,260,0
GPGPU-Sim uArch: Shader 171 bind to kernel 1 '_Z22bpnn_layerforward_CUDAPfS_S_S_ii'
thread block = 0,261,0
GPGPU-Sim uArch: Shader 179 bind to kernel 1 '_Z22bpnn_layerforward_CUDAPfS_S_S_ii'
thread block = 0,262,0
GPGPU-Sim uArch: Shader 187 bind to kernel 1 '_Z22bpnn_layerforward_CUDAPfS_S_S_ii'
thread block = 0,263,0
GPGPU-Sim uArch: Shader 195 bind to kernel 1 '_Z22bpnn_layerforward_CUDAPfS_S_S_ii'
thread block = 0,264,0
GPGPU-Sim uArch: Shader 203 bind to kernel 1 '_Z22bpnn_layerforward_CUDAPfS_S_S_ii'
thread block = 0,265,0
GPGPU-Sim uArch: Shader 211 bind to kernel 1 '_Z22bpnn_layerforward_CUDAPfS_S_S_ii'
thread block = 0,266,0
GPGPU-Sim uArch: Shader 219 bind to kernel 1 '_Z22bpnn_layerforward_CUDAPfS_S_S_ii'
thread block = 0,267,0
GPGPU-Sim uArch: Shader 227 bind to kernel 1 '_Z22bpnn_layerforward_CUDAPfS_S_S_ii'
thread block = 0,268,0
GPGPU-Sim uArch: Shader 235 bind to kernel 1 '_Z22bpnn_layerforward_CUDAPfS_S_S_ii'
thread block = 0,269,0
GPGPU-Sim uArch: Shader 243 bind to kernel 1 '_Z22bpnn_layerforward_CUDAPfS_S_S_ii'
thread block = 0,270,0
GPGPU-Sim uArch: Shader 251 bind to kernel 1 '_Z22bpnn_layerforward_CUDAPfS_S_S_ii'
thread block = 0,271,0
GPGPU-Sim uArch: Shader 259 bind to kernel 1 '_Z22bpnn_layerforward_CUDAPfS_S_S_ii'
thread block = 0,272,0
GPGPU-Sim uArch: Shader 267 bind to kernel 1 '_Z22bpnn_layerforward_CUDAPfS_S_S_ii'
thread block = 0,273,0
GPGPU-Sim uArch: Shader 275 bind to kernel 1 '_Z22bpnn_layerforward_CUDAPfS_S_S_ii'
thread block = 0,274,0
GPGPU-Sim uArch: Shader 283 bind to kernel 1 '_Z22bpnn_layerforward_CUDAPfS_S_S_ii'
thread block = 0,275,0
GPGPU-Sim uArch: Shader 291 bind to kernel 1 '_Z22bpnn_layerforward_CUDAPfS_S_S_ii'
thread block = 0,276,0
GPGPU-Sim uArch: Shader 299 bind to kernel 1 '_Z22bpnn_layerforward_CUDAPfS_S_S_ii'
thread block = 0,277,0
GPGPU-Sim uArch: Shader 307 bind to kernel 1 '_Z22bpnn_layerforward_CUDAPfS_S_S_ii'
thread block = 0,278,0
GPGPU-Sim uArch: Shader 315 bind to kernel 1 '_Z22bpnn_layerforward_CUDAPfS_S_S_ii'
thread block = 0,279,0
GPGPU-Sim uArch: Shader 323 bind to kernel 1 '_Z22bpnn_layerforward_CUDAPfS_S_S_ii'
thread block = 0,280,0
GPGPU-Sim uArch: Shader 331 bind to kernel 1 '_Z22bpnn_layerforward_CUDAPfS_S_S_ii'
thread block = 0,281,0
GPGPU-Sim uArch: Shader 339 bind to kernel 1 '_Z22bpnn_layerforward_CUDAPfS_S_S_ii'
thread block = 0,282,0
GPGPU-Sim uArch: Shader 347 bind to kernel 1 '_Z22bpnn_layerforward_CUDAPfS_S_S_ii'
thread block = 0,283,0
GPGPU-Sim uArch: Shader 355 bind to kernel 1 '_Z22bpnn_layerforward_CUDAPfS_S_S_ii'
thread block = 0,284,0
GPGPU-Sim uArch: Shader 363 bind to kernel 1 '_Z22bpnn_layerforward_CUDAPfS_S_S_ii'
thread block = 0,285,0
GPGPU-Sim uArch: Shader 371 bind to kernel 1 '_Z22bpnn_layerforward_CUDAPfS_S_S_ii'
thread block = 0,286,0
GPGPU-Sim uArch: Shader 379 bind to kernel 1 '_Z22bpnn_layerforward_CUDAPfS_S_S_ii'
thread block = 0,287,0
GPGPU-Sim uArch: Shader 387 bind to kernel 1 '_Z22bpnn_layerforward_CUDAPfS_S_S_ii'
thread block = 0,288,0
GPGPU-Sim uArch: Shader 395 bind to kernel 1 '_Z22bpnn_layerforward_CUDAPfS_S_S_ii'
thread block = 0,289,0
GPGPU-Sim uArch: Shader 403 bind to kernel 1 '_Z22bpnn_layerforward_CUDAPfS_S_S_ii'
thread block = 0,290,0
GPGPU-Sim uArch: Shader 411 bind to kernel 1 '_Z22bpnn_layerforward_CUDAPfS_S_S_ii'
thread block = 0,291,0
GPGPU-Sim uArch: Shader 419 bind to kernel 1 '_Z22bpnn_layerforward_CUDAPfS_S_S_ii'
thread block = 0,292,0
GPGPU-Sim uArch: Shader 427 bind to kernel 1 '_Z22bpnn_layerforward_CUDAPfS_S_S_ii'
thread block = 0,293,0
GPGPU-Sim uArch: Shader 435 bind to kernel 1 '_Z22bpnn_layerforward_CUDAPfS_S_S_ii'
thread block = 0,294,0
GPGPU-Sim uArch: Shader 443 bind to kernel 1 '_Z22bpnn_layerforward_CUDAPfS_S_S_ii'
thread block = 0,295,0
GPGPU-Sim uArch: Shader 451 bind to kernel 1 '_Z22bpnn_layerforward_CUDAPfS_S_S_ii'
thread block = 0,296,0
GPGPU-Sim uArch: Shader 459 bind to kernel 1 '_Z22bpnn_layerforward_CUDAPfS_S_S_ii'
thread block = 0,297,0
GPGPU-Sim uArch: Shader 467 bind to kernel 1 '_Z22bpnn_layerforward_CUDAPfS_S_S_ii'
thread block = 0,298,0
GPGPU-Sim uArch: Shader 475 bind to kernel 1 '_Z22bpnn_layerforward_CUDAPfS_S_S_ii'
thread block = 0,299,0
GPGPU-Sim uArch: Shader 483 bind to kernel 1 '_Z22bpnn_layerforward_CUDAPfS_S_S_ii'
thread block = 0,300,0
GPGPU-Sim uArch: Shader 491 bind to kernel 1 '_Z22bpnn_layerforward_CUDAPfS_S_S_ii'
thread block = 0,301,0
GPGPU-Sim uArch: Shader 499 bind to kernel 1 '_Z22bpnn_layerforward_CUDAPfS_S_S_ii'
thread block = 0,302,0
GPGPU-Sim uArch: Shader 507 bind to kernel 1 '_Z22bpnn_layerforward_CUDAPfS_S_S_ii'
thread block = 0,303,0
GPGPU-Sim uArch: Shader 515 bind to kernel 1 '_Z22bpnn_layerforward_CUDAPfS_S_S_ii'
thread block = 0,304,0
GPGPU-Sim uArch: Shader 523 bind to kernel 1 '_Z22bpnn_layerforward_CUDAPfS_S_S_ii'
thread block = 0,305,0
GPGPU-Sim uArch: Shader 531 bind to kernel 1 '_Z22bpnn_layerforward_CUDAPfS_S_S_ii'
thread block = 0,306,0
GPGPU-Sim uArch: Shader 539 bind to kernel 1 '_Z22bpnn_layerforward_CUDAPfS_S_S_ii'
thread block = 0,307,0
GPGPU-Sim uArch: Shader 547 bind to kernel 1 '_Z22bpnn_layerforward_CUDAPfS_S_S_ii'
thread block = 0,308,0
GPGPU-Sim uArch: Shader 555 bind to kernel 1 '_Z22bpnn_layerforward_CUDAPfS_S_S_ii'
thread block = 0,309,0
GPGPU-Sim uArch: Shader 563 bind to kernel 1 '_Z22bpnn_layerforward_CUDAPfS_S_S_ii'
thread block = 0,310,0
GPGPU-Sim uArch: Shader 571 bind to kernel 1 '_Z22bpnn_layerforward_CUDAPfS_S_S_ii'
thread block = 0,311,0
GPGPU-Sim uArch: Shader 579 bind to kernel 1 '_Z22bpnn_layerforward_CUDAPfS_S_S_ii'
thread block = 0,312,0
GPGPU-Sim uArch: Shader 587 bind to kernel 1 '_Z22bpnn_layerforward_CUDAPfS_S_S_ii'
thread block = 0,313,0
GPGPU-Sim uArch: Shader 595 bind to kernel 1 '_Z22bpnn_layerforward_CUDAPfS_S_S_ii'
thread block = 0,314,0
GPGPU-Sim uArch: Shader 603 bind to kernel 1 '_Z22bpnn_layerforward_CUDAPfS_S_S_ii'
thread block = 0,315,0
GPGPU-Sim uArch: Shader 611 bind to kernel 1 '_Z22bpnn_layerforward_CUDAPfS_S_S_ii'
thread block = 0,316,0
GPGPU-Sim uArch: Shader 619 bind to kernel 1 '_Z22bpnn_layerforward_CUDAPfS_S_S_ii'
thread block = 0,317,0
GPGPU-Sim uArch: Shader 627 bind to kernel 1 '_Z22bpnn_layerforward_CUDAPfS_S_S_ii'
thread block = 0,318,0
GPGPU-Sim uArch: Shader 635 bind to kernel 1 '_Z22bpnn_layerforward_CUDAPfS_S_S_ii'
thread block = 0,319,0
GPGPU-Sim uArch: Shader 4 bind to kernel 1 '_Z22bpnn_layerforward_CUDAPfS_S_S_ii'
thread block = 0,320,0
GPGPU-Sim uArch: Shader 12 bind to kernel 1 '_Z22bpnn_layerforward_CUDAPfS_S_S_ii'
thread block = 0,321,0
GPGPU-Sim uArch: Shader 20 bind to kernel 1 '_Z22bpnn_layerforward_CUDAPfS_S_S_ii'
thread block = 0,322,0
GPGPU-Sim uArch: Shader 28 bind to kernel 1 '_Z22bpnn_layerforward_CUDAPfS_S_S_ii'
thread block = 0,323,0
GPGPU-Sim uArch: Shader 36 bind to kernel 1 '_Z22bpnn_layerforward_CUDAPfS_S_S_ii'
thread block = 0,324,0
GPGPU-Sim uArch: Shader 44 bind to kernel 1 '_Z22bpnn_layerforward_CUDAPfS_S_S_ii'
thread block = 0,325,0
GPGPU-Sim uArch: Shader 52 bind to kernel 1 '_Z22bpnn_layerforward_CUDAPfS_S_S_ii'
thread block = 0,326,0
GPGPU-Sim uArch: Shader 60 bind to kernel 1 '_Z22bpnn_layerforward_CUDAPfS_S_S_ii'
thread block = 0,327,0
GPGPU-Sim uArch: Shader 68 bind to kernel 1 '_Z22bpnn_layerforward_CUDAPfS_S_S_ii'
thread block = 0,328,0
GPGPU-Sim uArch: Shader 76 bind to kernel 1 '_Z22bpnn_layerforward_CUDAPfS_S_S_ii'
thread block = 0,329,0
GPGPU-Sim uArch: Shader 84 bind to kernel 1 '_Z22bpnn_layerforward_CUDAPfS_S_S_ii'
thread block = 0,330,0
GPGPU-Sim uArch: Shader 92 bind to kernel 1 '_Z22bpnn_layerforward_CUDAPfS_S_S_ii'
thread block = 0,331,0
GPGPU-Sim uArch: Shader 100 bind to kernel 1 '_Z22bpnn_layerforward_CUDAPfS_S_S_ii'
thread block = 0,332,0
GPGPU-Sim uArch: Shader 108 bind to kernel 1 '_Z22bpnn_layerforward_CUDAPfS_S_S_ii'
thread block = 0,333,0
GPGPU-Sim uArch: Shader 116 bind to kernel 1 '_Z22bpnn_layerforward_CUDAPfS_S_S_ii'
thread block = 0,334,0
GPGPU-Sim uArch: Shader 124 bind to kernel 1 '_Z22bpnn_layerforward_CUDAPfS_S_S_ii'
thread block = 0,335,0
GPGPU-Sim uArch: Shader 132 bind to kernel 1 '_Z22bpnn_layerforward_CUDAPfS_S_S_ii'
thread block = 0,336,0
GPGPU-Sim uArch: Shader 140 bind to kernel 1 '_Z22bpnn_layerforward_CUDAPfS_S_S_ii'
thread block = 0,337,0
GPGPU-Sim uArch: Shader 148 bind to kernel 1 '_Z22bpnn_layerforward_CUDAPfS_S_S_ii'
thread block = 0,338,0
GPGPU-Sim uArch: Shader 156 bind to kernel 1 '_Z22bpnn_layerforward_CUDAPfS_S_S_ii'
thread block = 0,339,0
GPGPU-Sim uArch: Shader 164 bind to kernel 1 '_Z22bpnn_layerforward_CUDAPfS_S_S_ii'
thread block = 0,340,0
GPGPU-Sim uArch: Shader 172 bind to kernel 1 '_Z22bpnn_layerforward_CUDAPfS_S_S_ii'
thread block = 0,341,0
GPGPU-Sim uArch: Shader 180 bind to kernel 1 '_Z22bpnn_layerforward_CUDAPfS_S_S_ii'
thread block = 0,342,0
GPGPU-Sim uArch: Shader 188 bind to kernel 1 '_Z22bpnn_layerforward_CUDAPfS_S_S_ii'
thread block = 0,343,0
GPGPU-Sim uArch: Shader 196 bind to kernel 1 '_Z22bpnn_layerforward_CUDAPfS_S_S_ii'
thread block = 0,344,0
GPGPU-Sim uArch: Shader 204 bind to kernel 1 '_Z22bpnn_layerforward_CUDAPfS_S_S_ii'
thread block = 0,345,0
GPGPU-Sim uArch: Shader 212 bind to kernel 1 '_Z22bpnn_layerforward_CUDAPfS_S_S_ii'
thread block = 0,346,0
GPGPU-Sim uArch: Shader 220 bind to kernel 1 '_Z22bpnn_layerforward_CUDAPfS_S_S_ii'
thread block = 0,347,0
GPGPU-Sim uArch: Shader 228 bind to kernel 1 '_Z22bpnn_layerforward_CUDAPfS_S_S_ii'
thread block = 0,348,0
GPGPU-Sim uArch: Shader 236 bind to kernel 1 '_Z22bpnn_layerforward_CUDAPfS_S_S_ii'
thread block = 0,349,0
GPGPU-Sim uArch: Shader 244 bind to kernel 1 '_Z22bpnn_layerforward_CUDAPfS_S_S_ii'
thread block = 0,350,0
GPGPU-Sim uArch: Shader 252 bind to kernel 1 '_Z22bpnn_layerforward_CUDAPfS_S_S_ii'
thread block = 0,351,0
GPGPU-Sim uArch: Shader 260 bind to kernel 1 '_Z22bpnn_layerforward_CUDAPfS_S_S_ii'
thread block = 0,352,0
GPGPU-Sim uArch: Shader 268 bind to kernel 1 '_Z22bpnn_layerforward_CUDAPfS_S_S_ii'
thread block = 0,353,0
GPGPU-Sim uArch: Shader 276 bind to kernel 1 '_Z22bpnn_layerforward_CUDAPfS_S_S_ii'
thread block = 0,354,0
GPGPU-Sim uArch: Shader 284 bind to kernel 1 '_Z22bpnn_layerforward_CUDAPfS_S_S_ii'
thread block = 0,355,0
GPGPU-Sim uArch: Shader 292 bind to kernel 1 '_Z22bpnn_layerforward_CUDAPfS_S_S_ii'
thread block = 0,356,0
GPGPU-Sim uArch: Shader 300 bind to kernel 1 '_Z22bpnn_layerforward_CUDAPfS_S_S_ii'
thread block = 0,357,0
GPGPU-Sim uArch: Shader 308 bind to kernel 1 '_Z22bpnn_layerforward_CUDAPfS_S_S_ii'
thread block = 0,358,0
GPGPU-Sim uArch: Shader 316 bind to kernel 1 '_Z22bpnn_layerforward_CUDAPfS_S_S_ii'
thread block = 0,359,0
GPGPU-Sim uArch: Shader 324 bind to kernel 1 '_Z22bpnn_layerforward_CUDAPfS_S_S_ii'
thread block = 0,360,0
GPGPU-Sim uArch: Shader 332 bind to kernel 1 '_Z22bpnn_layerforward_CUDAPfS_S_S_ii'
thread block = 0,361,0
GPGPU-Sim uArch: Shader 340 bind to kernel 1 '_Z22bpnn_layerforward_CUDAPfS_S_S_ii'
thread block = 0,362,0
GPGPU-Sim uArch: Shader 348 bind to kernel 1 '_Z22bpnn_layerforward_CUDAPfS_S_S_ii'
thread block = 0,363,0
GPGPU-Sim uArch: Shader 356 bind to kernel 1 '_Z22bpnn_layerforward_CUDAPfS_S_S_ii'
thread block = 0,364,0
GPGPU-Sim uArch: Shader 364 bind to kernel 1 '_Z22bpnn_layerforward_CUDAPfS_S_S_ii'
thread block = 0,365,0
GPGPU-Sim uArch: Shader 372 bind to kernel 1 '_Z22bpnn_layerforward_CUDAPfS_S_S_ii'
thread block = 0,366,0
GPGPU-Sim uArch: Shader 380 bind to kernel 1 '_Z22bpnn_layerforward_CUDAPfS_S_S_ii'
thread block = 0,367,0
GPGPU-Sim uArch: Shader 388 bind to kernel 1 '_Z22bpnn_layerforward_CUDAPfS_S_S_ii'
thread block = 0,368,0
GPGPU-Sim uArch: Shader 396 bind to kernel 1 '_Z22bpnn_layerforward_CUDAPfS_S_S_ii'
thread block = 0,369,0
GPGPU-Sim uArch: Shader 404 bind to kernel 1 '_Z22bpnn_layerforward_CUDAPfS_S_S_ii'
thread block = 0,370,0
GPGPU-Sim uArch: Shader 412 bind to kernel 1 '_Z22bpnn_layerforward_CUDAPfS_S_S_ii'
thread block = 0,371,0
GPGPU-Sim uArch: Shader 420 bind to kernel 1 '_Z22bpnn_layerforward_CUDAPfS_S_S_ii'
thread block = 0,372,0
GPGPU-Sim uArch: Shader 428 bind to kernel 1 '_Z22bpnn_layerforward_CUDAPfS_S_S_ii'
thread block = 0,373,0
GPGPU-Sim uArch: Shader 436 bind to kernel 1 '_Z22bpnn_layerforward_CUDAPfS_S_S_ii'
thread block = 0,374,0
GPGPU-Sim uArch: Shader 444 bind to kernel 1 '_Z22bpnn_layerforward_CUDAPfS_S_S_ii'
thread block = 0,375,0
GPGPU-Sim uArch: Shader 452 bind to kernel 1 '_Z22bpnn_layerforward_CUDAPfS_S_S_ii'
thread block = 0,376,0
GPGPU-Sim uArch: Shader 460 bind to kernel 1 '_Z22bpnn_layerforward_CUDAPfS_S_S_ii'
thread block = 0,377,0
GPGPU-Sim uArch: Shader 468 bind to kernel 1 '_Z22bpnn_layerforward_CUDAPfS_S_S_ii'
thread block = 0,378,0
GPGPU-Sim uArch: Shader 476 bind to kernel 1 '_Z22bpnn_layerforward_CUDAPfS_S_S_ii'
thread block = 0,379,0
GPGPU-Sim uArch: Shader 484 bind to kernel 1 '_Z22bpnn_layerforward_CUDAPfS_S_S_ii'
thread block = 0,380,0
GPGPU-Sim uArch: Shader 492 bind to kernel 1 '_Z22bpnn_layerforward_CUDAPfS_S_S_ii'
thread block = 0,381,0
GPGPU-Sim uArch: Shader 500 bind to kernel 1 '_Z22bpnn_layerforward_CUDAPfS_S_S_ii'
thread block = 0,382,0
GPGPU-Sim uArch: Shader 508 bind to kernel 1 '_Z22bpnn_layerforward_CUDAPfS_S_S_ii'
thread block = 0,383,0
GPGPU-Sim uArch: Shader 516 bind to kernel 1 '_Z22bpnn_layerforward_CUDAPfS_S_S_ii'
thread block = 0,384,0
GPGPU-Sim uArch: Shader 524 bind to kernel 1 '_Z22bpnn_layerforward_CUDAPfS_S_S_ii'
thread block = 0,385,0
GPGPU-Sim uArch: Shader 532 bind to kernel 1 '_Z22bpnn_layerforward_CUDAPfS_S_S_ii'
thread block = 0,386,0
GPGPU-Sim uArch: Shader 540 bind to kernel 1 '_Z22bpnn_layerforward_CUDAPfS_S_S_ii'
thread block = 0,387,0
GPGPU-Sim uArch: Shader 548 bind to kernel 1 '_Z22bpnn_layerforward_CUDAPfS_S_S_ii'
thread block = 0,388,0
GPGPU-Sim uArch: Shader 556 bind to kernel 1 '_Z22bpnn_layerforward_CUDAPfS_S_S_ii'
thread block = 0,389,0
GPGPU-Sim uArch: Shader 564 bind to kernel 1 '_Z22bpnn_layerforward_CUDAPfS_S_S_ii'
thread block = 0,390,0
GPGPU-Sim uArch: Shader 572 bind to kernel 1 '_Z22bpnn_layerforward_CUDAPfS_S_S_ii'
thread block = 0,391,0
GPGPU-Sim uArch: Shader 580 bind to kernel 1 '_Z22bpnn_layerforward_CUDAPfS_S_S_ii'
thread block = 0,392,0
GPGPU-Sim uArch: Shader 588 bind to kernel 1 '_Z22bpnn_layerforward_CUDAPfS_S_S_ii'
thread block = 0,393,0
GPGPU-Sim uArch: Shader 596 bind to kernel 1 '_Z22bpnn_layerforward_CUDAPfS_S_S_ii'
thread block = 0,394,0
GPGPU-Sim uArch: Shader 604 bind to kernel 1 '_Z22bpnn_layerforward_CUDAPfS_S_S_ii'
thread block = 0,395,0
GPGPU-Sim uArch: Shader 612 bind to kernel 1 '_Z22bpnn_layerforward_CUDAPfS_S_S_ii'
thread block = 0,396,0
GPGPU-Sim uArch: Shader 620 bind to kernel 1 '_Z22bpnn_layerforward_CUDAPfS_S_S_ii'
thread block = 0,397,0
GPGPU-Sim uArch: Shader 628 bind to kernel 1 '_Z22bpnn_layerforward_CUDAPfS_S_S_ii'
thread block = 0,398,0
GPGPU-Sim uArch: Shader 636 bind to kernel 1 '_Z22bpnn_layerforward_CUDAPfS_S_S_ii'
thread block = 0,399,0
GPGPU-Sim uArch: Shader 5 bind to kernel 1 '_Z22bpnn_layerforward_CUDAPfS_S_S_ii'
thread block = 0,400,0
GPGPU-Sim uArch: Shader 13 bind to kernel 1 '_Z22bpnn_layerforward_CUDAPfS_S_S_ii'
thread block = 0,401,0
GPGPU-Sim uArch: Shader 21 bind to kernel 1 '_Z22bpnn_layerforward_CUDAPfS_S_S_ii'
thread block = 0,402,0
GPGPU-Sim uArch: Shader 29 bind to kernel 1 '_Z22bpnn_layerforward_CUDAPfS_S_S_ii'
thread block = 0,403,0
GPGPU-Sim uArch: Shader 37 bind to kernel 1 '_Z22bpnn_layerforward_CUDAPfS_S_S_ii'
thread block = 0,404,0
GPGPU-Sim uArch: Shader 45 bind to kernel 1 '_Z22bpnn_layerforward_CUDAPfS_S_S_ii'
thread block = 0,405,0
GPGPU-Sim uArch: Shader 53 bind to kernel 1 '_Z22bpnn_layerforward_CUDAPfS_S_S_ii'
thread block = 0,406,0
GPGPU-Sim uArch: Shader 61 bind to kernel 1 '_Z22bpnn_layerforward_CUDAPfS_S_S_ii'
thread block = 0,407,0
GPGPU-Sim uArch: Shader 69 bind to kernel 1 '_Z22bpnn_layerforward_CUDAPfS_S_S_ii'
thread block = 0,408,0
GPGPU-Sim uArch: Shader 77 bind to kernel 1 '_Z22bpnn_layerforward_CUDAPfS_S_S_ii'
thread block = 0,409,0
GPGPU-Sim uArch: Shader 85 bind to kernel 1 '_Z22bpnn_layerforward_CUDAPfS_S_S_ii'
thread block = 0,410,0
GPGPU-Sim uArch: Shader 93 bind to kernel 1 '_Z22bpnn_layerforward_CUDAPfS_S_S_ii'
thread block = 0,411,0
GPGPU-Sim uArch: Shader 101 bind to kernel 1 '_Z22bpnn_layerforward_CUDAPfS_S_S_ii'
thread block = 0,412,0
GPGPU-Sim uArch: Shader 109 bind to kernel 1 '_Z22bpnn_layerforward_CUDAPfS_S_S_ii'
thread block = 0,413,0
GPGPU-Sim uArch: Shader 117 bind to kernel 1 '_Z22bpnn_layerforward_CUDAPfS_S_S_ii'
thread block = 0,414,0
GPGPU-Sim uArch: Shader 125 bind to kernel 1 '_Z22bpnn_layerforward_CUDAPfS_S_S_ii'
thread block = 0,415,0
GPGPU-Sim uArch: Shader 133 bind to kernel 1 '_Z22bpnn_layerforward_CUDAPfS_S_S_ii'
thread block = 0,416,0
GPGPU-Sim uArch: Shader 141 bind to kernel 1 '_Z22bpnn_layerforward_CUDAPfS_S_S_ii'
thread block = 0,417,0
GPGPU-Sim uArch: Shader 149 bind to kernel 1 '_Z22bpnn_layerforward_CUDAPfS_S_S_ii'
thread block = 0,418,0
GPGPU-Sim uArch: Shader 157 bind to kernel 1 '_Z22bpnn_layerforward_CUDAPfS_S_S_ii'
thread block = 0,419,0
GPGPU-Sim uArch: Shader 165 bind to kernel 1 '_Z22bpnn_layerforward_CUDAPfS_S_S_ii'
thread block = 0,420,0
GPGPU-Sim uArch: Shader 173 bind to kernel 1 '_Z22bpnn_layerforward_CUDAPfS_S_S_ii'
thread block = 0,421,0
GPGPU-Sim uArch: Shader 181 bind to kernel 1 '_Z22bpnn_layerforward_CUDAPfS_S_S_ii'
thread block = 0,422,0
GPGPU-Sim uArch: Shader 189 bind to kernel 1 '_Z22bpnn_layerforward_CUDAPfS_S_S_ii'
thread block = 0,423,0
GPGPU-Sim uArch: Shader 197 bind to kernel 1 '_Z22bpnn_layerforward_CUDAPfS_S_S_ii'
thread block = 0,424,0
GPGPU-Sim uArch: Shader 205 bind to kernel 1 '_Z22bpnn_layerforward_CUDAPfS_S_S_ii'
thread block = 0,425,0
GPGPU-Sim uArch: Shader 213 bind to kernel 1 '_Z22bpnn_layerforward_CUDAPfS_S_S_ii'
thread block = 0,426,0
GPGPU-Sim uArch: Shader 221 bind to kernel 1 '_Z22bpnn_layerforward_CUDAPfS_S_S_ii'
thread block = 0,427,0
GPGPU-Sim uArch: Shader 229 bind to kernel 1 '_Z22bpnn_layerforward_CUDAPfS_S_S_ii'
thread block = 0,428,0
GPGPU-Sim uArch: Shader 237 bind to kernel 1 '_Z22bpnn_layerforward_CUDAPfS_S_S_ii'
thread block = 0,429,0
GPGPU-Sim uArch: Shader 245 bind to kernel 1 '_Z22bpnn_layerforward_CUDAPfS_S_S_ii'
thread block = 0,430,0
GPGPU-Sim uArch: Shader 253 bind to kernel 1 '_Z22bpnn_layerforward_CUDAPfS_S_S_ii'
thread block = 0,431,0
GPGPU-Sim uArch: Shader 261 bind to kernel 1 '_Z22bpnn_layerforward_CUDAPfS_S_S_ii'
thread block = 0,432,0
GPGPU-Sim uArch: Shader 269 bind to kernel 1 '_Z22bpnn_layerforward_CUDAPfS_S_S_ii'
thread block = 0,433,0
GPGPU-Sim uArch: Shader 277 bind to kernel 1 '_Z22bpnn_layerforward_CUDAPfS_S_S_ii'
thread block = 0,434,0
GPGPU-Sim uArch: Shader 285 bind to kernel 1 '_Z22bpnn_layerforward_CUDAPfS_S_S_ii'
thread block = 0,435,0
GPGPU-Sim uArch: Shader 293 bind to kernel 1 '_Z22bpnn_layerforward_CUDAPfS_S_S_ii'
thread block = 0,436,0
GPGPU-Sim uArch: Shader 301 bind to kernel 1 '_Z22bpnn_layerforward_CUDAPfS_S_S_ii'
thread block = 0,437,0
GPGPU-Sim uArch: Shader 309 bind to kernel 1 '_Z22bpnn_layerforward_CUDAPfS_S_S_ii'
thread block = 0,438,0
GPGPU-Sim uArch: Shader 317 bind to kernel 1 '_Z22bpnn_layerforward_CUDAPfS_S_S_ii'
thread block = 0,439,0
GPGPU-Sim uArch: Shader 325 bind to kernel 1 '_Z22bpnn_layerforward_CUDAPfS_S_S_ii'
thread block = 0,440,0
GPGPU-Sim uArch: Shader 333 bind to kernel 1 '_Z22bpnn_layerforward_CUDAPfS_S_S_ii'
thread block = 0,441,0
GPGPU-Sim uArch: Shader 341 bind to kernel 1 '_Z22bpnn_layerforward_CUDAPfS_S_S_ii'
thread block = 0,442,0
GPGPU-Sim uArch: Shader 349 bind to kernel 1 '_Z22bpnn_layerforward_CUDAPfS_S_S_ii'
thread block = 0,443,0
GPGPU-Sim uArch: Shader 357 bind to kernel 1 '_Z22bpnn_layerforward_CUDAPfS_S_S_ii'
thread block = 0,444,0
GPGPU-Sim uArch: Shader 365 bind to kernel 1 '_Z22bpnn_layerforward_CUDAPfS_S_S_ii'
thread block = 0,445,0
GPGPU-Sim uArch: Shader 373 bind to kernel 1 '_Z22bpnn_layerforward_CUDAPfS_S_S_ii'
thread block = 0,446,0
GPGPU-Sim uArch: Shader 381 bind to kernel 1 '_Z22bpnn_layerforward_CUDAPfS_S_S_ii'
thread block = 0,447,0
GPGPU-Sim uArch: Shader 389 bind to kernel 1 '_Z22bpnn_layerforward_CUDAPfS_S_S_ii'
thread block = 0,448,0
GPGPU-Sim uArch: Shader 397 bind to kernel 1 '_Z22bpnn_layerforward_CUDAPfS_S_S_ii'
thread block = 0,449,0
GPGPU-Sim uArch: Shader 405 bind to kernel 1 '_Z22bpnn_layerforward_CUDAPfS_S_S_ii'
thread block = 0,450,0
GPGPU-Sim uArch: Shader 413 bind to kernel 1 '_Z22bpnn_layerforward_CUDAPfS_S_S_ii'
thread block = 0,451,0
GPGPU-Sim uArch: Shader 421 bind to kernel 1 '_Z22bpnn_layerforward_CUDAPfS_S_S_ii'
thread block = 0,452,0
GPGPU-Sim uArch: Shader 429 bind to kernel 1 '_Z22bpnn_layerforward_CUDAPfS_S_S_ii'
thread block = 0,453,0
GPGPU-Sim uArch: Shader 437 bind to kernel 1 '_Z22bpnn_layerforward_CUDAPfS_S_S_ii'
thread block = 0,454,0
GPGPU-Sim uArch: Shader 445 bind to kernel 1 '_Z22bpnn_layerforward_CUDAPfS_S_S_ii'
thread block = 0,455,0
GPGPU-Sim uArch: Shader 453 bind to kernel 1 '_Z22bpnn_layerforward_CUDAPfS_S_S_ii'
thread block = 0,456,0
GPGPU-Sim uArch: Shader 461 bind to kernel 1 '_Z22bpnn_layerforward_CUDAPfS_S_S_ii'
thread block = 0,457,0
GPGPU-Sim uArch: Shader 469 bind to kernel 1 '_Z22bpnn_layerforward_CUDAPfS_S_S_ii'
thread block = 0,458,0
GPGPU-Sim uArch: Shader 477 bind to kernel 1 '_Z22bpnn_layerforward_CUDAPfS_S_S_ii'
thread block = 0,459,0
GPGPU-Sim uArch: Shader 485 bind to kernel 1 '_Z22bpnn_layerforward_CUDAPfS_S_S_ii'
thread block = 0,460,0
GPGPU-Sim uArch: Shader 493 bind to kernel 1 '_Z22bpnn_layerforward_CUDAPfS_S_S_ii'
thread block = 0,461,0
GPGPU-Sim uArch: Shader 501 bind to kernel 1 '_Z22bpnn_layerforward_CUDAPfS_S_S_ii'
thread block = 0,462,0
GPGPU-Sim uArch: Shader 509 bind to kernel 1 '_Z22bpnn_layerforward_CUDAPfS_S_S_ii'
thread block = 0,463,0
GPGPU-Sim uArch: Shader 517 bind to kernel 1 '_Z22bpnn_layerforward_CUDAPfS_S_S_ii'
thread block = 0,464,0
GPGPU-Sim uArch: Shader 525 bind to kernel 1 '_Z22bpnn_layerforward_CUDAPfS_S_S_ii'
thread block = 0,465,0
GPGPU-Sim uArch: Shader 533 bind to kernel 1 '_Z22bpnn_layerforward_CUDAPfS_S_S_ii'
thread block = 0,466,0
GPGPU-Sim uArch: Shader 541 bind to kernel 1 '_Z22bpnn_layerforward_CUDAPfS_S_S_ii'
thread block = 0,467,0
GPGPU-Sim uArch: Shader 549 bind to kernel 1 '_Z22bpnn_layerforward_CUDAPfS_S_S_ii'
thread block = 0,468,0
GPGPU-Sim uArch: Shader 557 bind to kernel 1 '_Z22bpnn_layerforward_CUDAPfS_S_S_ii'
thread block = 0,469,0
GPGPU-Sim uArch: Shader 565 bind to kernel 1 '_Z22bpnn_layerforward_CUDAPfS_S_S_ii'
thread block = 0,470,0
GPGPU-Sim uArch: Shader 573 bind to kernel 1 '_Z22bpnn_layerforward_CUDAPfS_S_S_ii'
thread block = 0,471,0
GPGPU-Sim uArch: Shader 581 bind to kernel 1 '_Z22bpnn_layerforward_CUDAPfS_S_S_ii'
thread block = 0,472,0
GPGPU-Sim uArch: Shader 589 bind to kernel 1 '_Z22bpnn_layerforward_CUDAPfS_S_S_ii'
thread block = 0,473,0
GPGPU-Sim uArch: Shader 597 bind to kernel 1 '_Z22bpnn_layerforward_CUDAPfS_S_S_ii'
thread block = 0,474,0
GPGPU-Sim uArch: Shader 605 bind to kernel 1 '_Z22bpnn_layerforward_CUDAPfS_S_S_ii'
thread block = 0,475,0
GPGPU-Sim uArch: Shader 613 bind to kernel 1 '_Z22bpnn_layerforward_CUDAPfS_S_S_ii'
thread block = 0,476,0
GPGPU-Sim uArch: Shader 621 bind to kernel 1 '_Z22bpnn_layerforward_CUDAPfS_S_S_ii'
thread block = 0,477,0
GPGPU-Sim uArch: Shader 629 bind to kernel 1 '_Z22bpnn_layerforward_CUDAPfS_S_S_ii'
thread block = 0,478,0
GPGPU-Sim uArch: Shader 637 bind to kernel 1 '_Z22bpnn_layerforward_CUDAPfS_S_S_ii'
thread block = 0,479,0
GPGPU-Sim uArch: Shader 6 bind to kernel 1 '_Z22bpnn_layerforward_CUDAPfS_S_S_ii'
thread block = 0,480,0
GPGPU-Sim uArch: Shader 14 bind to kernel 1 '_Z22bpnn_layerforward_CUDAPfS_S_S_ii'
thread block = 0,481,0
GPGPU-Sim uArch: Shader 22 bind to kernel 1 '_Z22bpnn_layerforward_CUDAPfS_S_S_ii'
thread block = 0,482,0
GPGPU-Sim uArch: Shader 30 bind to kernel 1 '_Z22bpnn_layerforward_CUDAPfS_S_S_ii'
thread block = 0,483,0
GPGPU-Sim uArch: Shader 38 bind to kernel 1 '_Z22bpnn_layerforward_CUDAPfS_S_S_ii'
thread block = 0,484,0
GPGPU-Sim uArch: Shader 46 bind to kernel 1 '_Z22bpnn_layerforward_CUDAPfS_S_S_ii'
thread block = 0,485,0
GPGPU-Sim uArch: Shader 54 bind to kernel 1 '_Z22bpnn_layerforward_CUDAPfS_S_S_ii'
thread block = 0,486,0
GPGPU-Sim uArch: Shader 62 bind to kernel 1 '_Z22bpnn_layerforward_CUDAPfS_S_S_ii'
thread block = 0,487,0
GPGPU-Sim uArch: Shader 70 bind to kernel 1 '_Z22bpnn_layerforward_CUDAPfS_S_S_ii'
thread block = 0,488,0
GPGPU-Sim uArch: Shader 78 bind to kernel 1 '_Z22bpnn_layerforward_CUDAPfS_S_S_ii'
[...]
n_activity=20498 dram_eff=0.7899
bk0: 1088a 18773i bk1: 1088a 18774i bk2: 1088a 17944i bk3: 1089a 17762i bk4: 768a 19350i bk5: 768a 19162i bk6: 768a 19746i bk7: 769a 20152i bk8: 768a 19636i bk9: 769a 20466i bk10: 769a 19591i bk11: 769a 19363i bk12: 769a 18907i bk13: 768a 20298i bk14: 769a 20184i bk15: 769a 19551i 

------------------------------------------------------------------------

Row_Buffer_Locality = 0.765285
Row_Buffer_Locality_read = 0.780421
Row_Buffer_Locality_write = 0.451070
Bank_Level_Parallism = 11.266635
Bank_Level_Parallism_Col = 7.137336
Bank_Level_Parallism_Ready = 3.220356
write_to_read_ratio_blp_rw_average = 0.183920
GrpLevelPara = 3.421710 

BW Util details:
bwutil = 0.510225 
total_CMD = 31735 
util_bw = 16192 
Wasted_Col = 2481 
Wasted_Row = 173 
Idle = 12889 

BW Util Bottlenecks: 
RCDc_limit = 4280 
RCDWRc_limit = 817 
WTRc_limit = 2415 
RTWc_limit = 8136 
CCDLc_limit = 2799 
rwq = 0 
CCDLc_limit_alone = 1902 
WTRc_limit_alone = 2124 
RTWc_limit_alone = 7530 

Commands details: 
total_CMD = 31735 
n_nop = 14609 
Read = 13576 
Write = 0 
L2_Alloc = 0 
L2_WB = 2616 
n_act = 3340 
n_pre = 3324 
n_ref = 0 
n_req = 14230 
total_req = 16192 

Dual Bus Interface Util: 
issued_total_row = 6664 
issued_total_col = 16192 
Row_Bus_Util =  0.209989 
CoL_Bus_Util = 0.510225 
Either_Row_CoL_Bus_Util = 0.539657 
Issued_on_Two_Bus_Simul_Util = 0.180558 
issued_two_Eff = 0.334579 
queue_avg = 29.821962 


dram_util_bins: 0 0 0 0 0 0 0 0 0 0
dram_eff_bins: 0 0 0 0 0 0 0 0 0 0
mrqq: max=64 avg=29.822
Memory Partition 29: 
Cache L2_bank_058:
MSHR contents

Cache L2_bank_059:
MSHR contents

In Dram Latency Queue (total = 0): 
DRAM[29]: 16 bks, busW=16 BL=2 CL=12, tRRD=3 tCCD=1, tRCD=12 tRAS=28 tRP=12 tRC=40
n_cmd=31735 n_nop=14641 n_act=3368 n_pre=3352 n_ref_event=0 n_req=14237 n_rd=13580 n_rd_L2_A=0 n_write=0 n_wr_bk=2628 bw_util=0.5107
n_activity=20402 dram_eff=0.7944
bk0: 1088a 18379i bk1: 1088a 19055i bk2: 1088a 18608i bk3: 1088a 18040i bk4: 769a 19515i bk5: 769a 19069i bk6: 771a 19138i bk7: 769a 18952i bk8: 768a 19878i bk9: 769a 19811i bk10: 771a 19845i bk11: 768a 19342i bk12: 769a 19166i bk13: 768a 19903i bk14: 768a 19716i bk15: 769a 19932i 

------------------------------------------------------------------------

Row_Buffer_Locality = 0.763433
Row_Buffer_Locality_read = 0.778645
Row_Buffer_Locality_write = 0.449011
Bank_Level_Parallism = 11.391522
Bank_Level_Parallism_Col = 7.253246
Bank_Level_Parallism_Ready = 3.266967
write_to_read_ratio_blp_rw_average = 0.185390
GrpLevelPara = 3.442332 

BW Util details:
bwutil = 0.510729 
total_CMD = 31735 
util_bw = 16208 
Wasted_Col = 2374 
Wasted_Row = 173 
Idle = 12980 

BW Util Bottlenecks: 
RCDc_limit = 4086 
RCDWRc_limit = 910 
WTRc_limit = 2491 
RTWc_limit = 8095 
CCDLc_limit = 2463 
rwq = 0 
CCDLc_limit_alone = 1596 
WTRc_limit_alone = 2248 
RTWc_limit_alone = 7471 

Commands details: 
total_CMD = 31735 
n_nop = 14641 
Read = 13580 
Write = 0 
L2_Alloc = 0 
L2_WB = 2628 
n_act = 3368 
n_pre = 3352 
n_ref = 0 
n_req = 14237 
total_req = 16208 

Dual Bus Interface Util: 
issued_total_row = 6720 
issued_total_col = 16208 
Row_Bus_Util =  0.211754 
CoL_Bus_Util = 0.510729 
Either_Row_CoL_Bus_Util = 0.538648 
Issued_on_Two_Bus_Simul_Util = 0.183835 
issued_two_Eff = 0.341289 
queue_avg = 28.673893 


dram_util_bins: 0 0 0 0 0 0 0 0 0 0
dram_eff_bins: 0 0 0 0 0 0 0 0 0 0
mrqq: max=64 avg=28.6739
Memory Partition 30: 
Cache L2_bank_060:
MSHR contents

Cache L2_bank_061:
MSHR contents

In Dram Latency Queue (total = 0): 
DRAM[30]: 16 bks, busW=16 BL=2 CL=12, tRRD=3 tCCD=1, tRCD=12 tRAS=28 tRP=12 tRC=40
n_cmd=31735 n_nop=14603 n_act=3353 n_pre=3337 n_ref_event=0 n_req=14235 n_rd=13581 n_rd_L2_A=0 n_write=0 n_wr_bk=2616 bw_util=0.5104
n_activity=20814 dram_eff=0.7782
bk0: 1089a 18366i bk1: 1088a 18790i bk2: 1089a 18214i bk3: 1088a 18135i bk4: 770a 19667i bk5: 769a 19339i bk6: 768a 19994i bk7: 770a 20218i bk8: 769a 19853i bk9: 768a 20051i bk10: 769a 19059i bk11: 768a 19285i bk12: 769a 19783i bk13: 769a 19198i bk14: 770a 20236i bk15: 768a 18783i 

------------------------------------------------------------------------

Row_Buffer_Locality = 0.764454
Row_Buffer_Locality_read = 0.780944
Row_Buffer_Locality_write = 0.422018
Bank_Level_Parallism = 11.161270
Bank_Level_Parallism_Col = 7.101273
Bank_Level_Parallism_Ready = 3.236649
write_to_read_ratio_blp_rw_average = 0.177844
GrpLevelPara = 3.398381 

BW Util details:
bwutil = 0.510383 
total_CMD = 31735 
util_bw = 16197 
Wasted_Col = 2595 
Wasted_Row = 294 
Idle = 12649 

BW Util Bottlenecks: 
RCDc_limit = 4376 
RCDWRc_limit = 987 
WTRc_limit = 2500 
RTWc_limit = 7649 
CCDLc_limit = 2670 
rwq = 0 
CCDLc_limit_alone = 1830 
WTRc_limit_alone = 2232 
RTWc_limit_alone = 7077 

Commands details: 
total_CMD = 31735 
n_nop = 14603 
Read = 13581 
Write = 0 
L2_Alloc = 0 
L2_WB = 2616 
n_act = 3353 
n_pre = 3337 
n_ref = 0 
n_req = 14235 
total_req = 16197 

Dual Bus Interface Util: 
issued_total_row = 6690 
issued_total_col = 16197 
Row_Bus_Util =  0.210808 
CoL_Bus_Util = 0.510383 
Either_Row_CoL_Bus_Util = 0.539846 
Issued_on_Two_Bus_Simul_Util = 0.181346 
issued_two_Eff = 0.335921 
queue_avg = 29.149300 


dram_util_bins: 0 0 0 0 0 0 0 0 0 0
dram_eff_bins: 0 0 0 0 0 0 0 0 0 0
mrqq: max=64 avg=29.1493
Memory Partition 31: 
Cache L2_bank_062:
MSHR contents

Cache L2_bank_063:
MSHR contents

In Dram Latency Queue (total = 0): 
DRAM[31]: 16 bks, busW=16 BL=2 CL=12, tRRD=3 tCCD=1, tRCD=12 tRAS=28 tRP=12 tRC=40
n_cmd=31735 n_nop=14589 n_act=3297 n_pre=3281 n_ref_event=0 n_req=14248 n_rd=13589 n_rd_L2_A=0 n_write=0 n_wr_bk=2636 bw_util=0.5113
n_activity=20676 dram_eff=0.7847
bk0: 1089a 18431i bk1: 1089a 18811i bk2: 1089a 18185i bk3: 1088a 18098i bk4: 768a 19384i bk5: 769a 19330i bk6: 769a 19477i bk7: 769a 19733i bk8: 769a 20312i bk9: 771a 19398i bk10: 769a 19160i bk11: 770a 19358i bk12: 771a 19647i bk13: 772a 19741i bk14: 768a 20473i bk15: 769a 18995i 

------------------------------------------------------------------------

Row_Buffer_Locality = 0.768599
Row_Buffer_Locality_read = 0.782250
Row_Buffer_Locality_write = 0.487102
Bank_Level_Parallism = 11.155675
Bank_Level_Parallism_Col = 7.161669
Bank_Level_Parallism_Ready = 3.199445
write_to_read_ratio_blp_rw_average = 0.174076
GrpLevelPara = 3.387241 

BW Util details:
bwutil = 0.511265 
total_CMD = 31735 
util_bw = 16225 
Wasted_Col = 2607 
Wasted_Row = 304 
Idle = 12599 

BW Util Bottlenecks: 
RCDc_limit = 4397 
RCDWRc_limit = 846 
WTRc_limit = 2891 
RTWc_limit = 7798 
CCDLc_limit = 2776 
rwq = 0 
CCDLc_limit_alone = 1873 
WTRc_limit_alone = 2534 
RTWc_limit_alone = 7252 

Commands details: 
total_CMD = 31735 
n_nop = 14589 
Read = 13589 
Write = 0 
L2_Alloc = 0 
L2_WB = 2636 
n_act = 3297 
n_pre = 3281 
n_ref = 0 
n_req = 14248 
total_req = 16225 

Dual Bus Interface Util: 
issued_total_row = 6578 
issued_total_col = 16225 
Row_Bus_Util =  0.207279 
CoL_Bus_Util = 0.511265 
Either_Row_CoL_Bus_Util = 0.540287 
Issued_on_Two_Bus_Simul_Util = 0.178257 
issued_two_Eff = 0.329931 
queue_avg = 29.540823 


dram_util_bins: 0 0 0 0 0 0 0 0 0 0
dram_eff_bins: 0 0 0 0 0 0 0 0 0 0
mrqq: max=64 avg=29.5408

========= L2 cache stats =========
L2_cache_bank[0]: Access = 15370, Miss = 9672, Miss_rate = 0.629, Pending_hits = 112, Reservation_fails = 0
L2_cache_bank[1]: Access = 15325, Miss = 9623, Miss_rate = 0.628, Pending_hits = 123, Reservation_fails = 0
L2_cache_bank[2]: Access = 15363, Miss = 9695, Miss_rate = 0.631, Pending_hits = 112, Reservation_fails = 0
L2_cache_bank[3]: Access = 15310, Miss = 9740, Miss_rate = 0.636, Pending_hits = 106, Reservation_fails = 0
L2_cache_bank[4]: Access = 15361, Miss = 9628, Miss_rate = 0.627, Pending_hits = 121, Reservation_fails = 0
L2_cache_bank[5]: Access = 15319, Miss = 9617, Miss_rate = 0.628, Pending_hits = 120, Reservation_fails = 0
L2_cache_bank[6]: Access = 15314, Miss = 9645, Miss_rate = 0.630, Pending_hits = 107, Reservation_fails = 0
L2_cache_bank[7]: Access = 15337, Miss = 9511, Miss_rate = 0.620, Pending_hits = 127, Reservation_fails = 0
L2_cache_bank[8]: Access = 15267, Miss = 9453, Miss_rate = 0.619, Pending_hits = 121, Reservation_fails = 0
L2_cache_bank[9]: Access = 15348, Miss = 9595, Miss_rate = 0.625, Pending_hits = 115, Reservation_fails = 0
L2_cache_bank[10]: Access = 15299, Miss = 9527, Miss_rate = 0.623, Pending_hits = 130, Reservation_fails = 0
L2_cache_bank[11]: Access = 15364, Miss = 9668, Miss_rate = 0.629, Pending_hits = 119, Reservation_fails = 0
L2_cache_bank[12]: Access = 15311, Miss = 9624, Miss_rate = 0.629, Pending_hits = 118, Reservation_fails = 0
L2_cache_bank[13]: Access = 15340, Miss = 9589, Miss_rate = 0.625, Pending_hits = 103, Reservation_fails = 0
L2_cache_bank[14]: Access = 15283, Miss = 9582, Miss_rate = 0.627, Pending_hits = 108, Reservation_fails = 0
L2_cache_bank[15]: Access = 15353, Miss = 9671, Miss_rate = 0.630, Pending_hits = 121, Reservation_fails = 0
L2_cache_bank[16]: Access = 15337, Miss = 9712, Miss_rate = 0.633, Pending_hits = 117, Reservation_fails = 0
L2_cache_bank[17]: Access = 15333, Miss = 9487, Miss_rate = 0.619, Pending_hits = 117, Reservation_fails = 0
L2_cache_bank[18]: Access = 15345, Miss = 9637, Miss_rate = 0.628, Pending_hits = 114, Reservation_fails = 0
L2_cache_bank[19]: Access = 15337, Miss = 9614, Miss_rate = 0.627, Pending_hits = 132, Reservation_fails = 0
L2_cache_bank[20]: Access = 15327, Miss = 9535, Miss_rate = 0.622, Pending_hits = 119, Reservation_fails = 0
L2_cache_bank[21]: Access = 17268, Miss = 9700, Miss_rate = 0.562, Pending_hits = 141, Reservation_fails = 283
L2_cache_bank[22]: Access = 15345, Miss = 9754, Miss_rate = 0.636, Pending_hits = 122, Reservation_fails = 0
L2_cache_bank[23]: Access = 15327, Miss = 9557, Miss_rate = 0.624, Pending_hits = 116, Reservation_fails = 0
L2_cache_bank[24]: Access = 15319, Miss = 9635, Miss_rate = 0.629, Pending_hits = 106, Reservation_fails = 0
L2_cache_bank[25]: Access = 15374, Miss = 9642, Miss_rate = 0.627, Pending_hits = 116, Reservation_fails = 0
L2_cache_bank[26]: Access = 15321, Miss = 9571, Miss_rate = 0.625, Pending_hits = 126, Reservation_fails = 0
L2_cache_bank[27]: Access = 15392, Miss = 9582, Miss_rate = 0.623, Pending_hits = 120, Reservation_fails = 0
L2_cache_bank[28]: Access = 15337, Miss = 9567, Miss_rate = 0.624, Pending_hits = 114, Reservation_fails = 0
L2_cache_bank[29]: Access = 15389, Miss = 9758, Miss_rate = 0.634, Pending_hits = 118, Reservation_fails = 0
L2_cache_bank[30]: Access = 15324, Miss = 9626, Miss_rate = 0.628, Pending_hits = 113, Reservation_fails = 0
L2_cache_bank[31]: Access = 15360, Miss = 9791, Miss_rate = 0.637, Pending_hits = 106, Reservation_fails = 0
L2_cache_bank[32]: Access = 15313, Miss = 9558, Miss_rate = 0.624, Pending_hits = 115, Reservation_fails = 0
L2_cache_bank[33]: Access = 15345, Miss = 9473, Miss_rate = 0.617, Pending_hits = 121, Reservation_fails = 0
L2_cache_bank[34]: Access = 15341, Miss = 9498, Miss_rate = 0.619, Pending_hits = 117, Reservation_fails = 0
L2_cache_bank[35]: Access = 15337, Miss = 9544, Miss_rate = 0.622, Pending_hits = 103, Reservation_fails = 0
L2_cache_bank[36]: Access = 15312, Miss = 9709, Miss_rate = 0.634, Pending_hits = 104, Reservation_fails = 0
L2_cache_bank[37]: Access = 15355, Miss = 9558, Miss_rate = 0.622, Pending_hits = 112, Reservation_fails = 0
L2_cache_bank[38]: Access = 15339, Miss = 9669, Miss_rate = 0.630, Pending_hits = 113, Reservation_fails = 0
L2_cache_bank[39]: Access = 15355, Miss = 9530, Miss_rate = 0.621, Pending_hits = 110, Reservation_fails = 0
L2_cache_bank[40]: Access = 15359, Miss = 9619, Miss_rate = 0.626, Pending_hits = 110, Reservation_fails = 0
L2_cache_bank[41]: Access = 15332, Miss = 9647, Miss_rate = 0.629, Pending_hits = 116, Reservation_fails = 0
L2_cache_bank[42]: Access = 15345, Miss = 9687, Miss_rate = 0.631, Pending_hits = 124, Reservation_fails = 0
L2_cache_bank[43]: Access = 15306, Miss = 9625, Miss_rate = 0.629, Pending_hits = 120, Reservation_fails = 0
L2_cache_bank[44]: Access = 15329, Miss = 9736, Miss_rate = 0.635, Pending_hits = 110, Reservation_fails = 0
L2_cache_bank[45]: Access = 15325, Miss = 9466, Miss_rate = 0.618, Pending_hits = 115, Reservation_fails = 0
L2_cache_bank[46]: Access = 15353, Miss = 9610, Miss_rate = 0.626, Pending_hits = 131, Reservation_fails = 0
L2_cache_bank[47]: Access = 15331, Miss = 9550, Miss_rate = 0.623, Pending_hits = 112, Reservation_fails = 0
L2_cache_bank[48]: Access = 15329, Miss = 9596, Miss_rate = 0.626, Pending_hits = 122, Reservation_fails = 0
L2_cache_bank[49]: Access = 15344, Miss = 9567, Miss_rate = 0.624, Pending_hits = 111, Reservation_fails = 0
L2_cache_bank[50]: Access = 15311, Miss = 9587, Miss_rate = 0.626, Pending_hits = 115, Reservation_fails = 0
L2_cache_bank[51]: Access = 15352, Miss = 9468, Miss_rate = 0.617, Pending_hits = 127, Reservation_fails = 0
L2_cache_bank[52]: Access = 15348, Miss = 9650, Miss_rate = 0.629, Pending_hits = 118, Reservation_fails = 0
L2_cache_bank[53]: Access = 15329, Miss = 9714, Miss_rate = 0.634, Pending_hits = 122, Reservation_fails = 0
L2_cache_bank[54]: Access = 15335, Miss = 9496, Miss_rate = 0.619, Pending_hits = 111, Reservation_fails = 0
L2_cache_bank[55]: Access = 15338, Miss = 9766, Miss_rate = 0.637, Pending_hits = 106, Reservation_fails = 0
L2_cache_bank[56]: Access = 15356, Miss = 9665, Miss_rate = 0.629, Pending_hits = 127, Reservation_fails = 0
L2_cache_bank[57]: Access = 15338, Miss = 9601, Miss_rate = 0.626, Pending_hits = 115, Reservation_fails = 0
L2_cache_bank[58]: Access = 15338, Miss = 9615, Miss_rate = 0.627, Pending_hits = 118, Reservation_fails = 0
L2_cache_bank[59]: Access = 15315, Miss = 9543, Miss_rate = 0.623, Pending_hits = 112, Reservation_fails = 0
L2_cache_bank[60]: Access = 15329, Miss = 9695, Miss_rate = 0.632, Pending_hits = 117, Reservation_fails = 0
L2_cache_bank[61]: Access = 15308, Miss = 9421, Miss_rate = 0.615, Pending_hits = 120, Reservation_fails = 0
L2_cache_bank[62]: Access = 15342, Miss = 9588, Miss_rate = 0.625, Pending_hits = 127, Reservation_fails = 0
L2_cache_bank[63]: Access = 15350, Miss = 9691, Miss_rate = 0.631, Pending_hits = 125, Reservation_fails = 0
L2_total_cache_accesses = 983438
L2_total_cache_misses = 615150
L2_total_cache_miss_rate = 0.6255
L2_total_cache_pending_hits = 7486
L2_total_cache_reservation_fails = 283
L2_total_cache_breakdown:
	L2_cache_stats_breakdown[GLOBAL_ACC_R][HIT] = 17038
	L2_cache_stats_breakdown[GLOBAL_ACC_R][HIT_RESERVED] = 7449
	L2_cache_stats_breakdown[GLOBAL_ACC_R][MISS] = 108718
	L2_cache_stats_breakdown[GLOBAL_ACC_R][RESERVATION_FAIL] = 283
	L2_cache_stats_breakdown[GLOBAL_ACC_R][SECTOR_MISS] = 325939
	L2_cache_stats_breakdown[GLOBAL_ACC_R][MSHR_HIT] = 7449
	L2_cache_stats_breakdown[LOCAL_ACC_R][HIT] = 0
	L2_cache_stats_breakdown[LOCAL_ACC_R][HIT_RESERVED] = 0
	L2_cache_stats_breakdown[LOCAL_ACC_R][MISS] = 0
	L2_cache_stats_breakdown[LOCAL_ACC_R][RESERVATION_FAIL] = 0
	L2_cache_stats_breakdown[LOCAL_ACC_R][SECTOR_MISS] = 0
	L2_cache_stats_breakdown[LOCAL_ACC_R][MSHR_HIT] = 0
	L2_cache_stats_breakdown[CONST_ACC_R][HIT] = 0
	L2_cache_stats_breakdown[CONST_ACC_R][HIT_RESERVED] = 0
	L2_cache_stats_breakdown[CONST_ACC_R][MISS] = 0
	L2_cache_stats_breakdown[CONST_ACC_R][RESERVATION_FAIL] = 0
	L2_cache_stats_breakdown[CONST_ACC_R][SECTOR_MISS] = 0
	L2_cache_stats_breakdown[CONST_ACC_R][MSHR_HIT] = 0
	L2_cache_stats_breakdown[TEXTURE_ACC_R][HIT] = 0
	L2_cache_stats_breakdown[TEXTURE_ACC_R][HIT_RESERVED] = 0
	L2_cache_stats_breakdown[TEXTURE_ACC_R][MISS] = 0
	L2_cache_stats_breakdown[TEXTURE_ACC_R][RESERVATION_FAIL] = 0
	L2_cache_stats_breakdown[TEXTURE_ACC_R][SECTOR_MISS] = 0
	L2_cache_stats_breakdown[TEXTURE_ACC_R][MSHR_HIT] = 0
	L2_cache_stats_breakdown[GLOBAL_ACC_W][HIT] = 343764
	L2_cache_stats_breakdown[GLOBAL_ACC_W][HIT_RESERVED] = 37
	L2_cache_stats_breakdown[GLOBAL_ACC_W][MISS] = 33527
	L2_cache_stats_breakdown[GLOBAL_ACC_W][RESERVATION_FAIL] = 0
	L2_cache_stats_breakdown[GLOBAL_ACC_W][SECTOR_MISS] = 146966
	L2_cache_stats_breakdown[GLOBAL_ACC_W][MSHR_HIT] = 0
	L2_cache_stats_breakdown[LOCAL_ACC_W][HIT] = 0
	L2_cache_stats_breakdown[LOCAL_ACC_W][HIT_RESERVED] = 0
	L2_cache_stats_breakdown[LOCAL_ACC_W][MISS] = 0
	L2_cache_stats_breakdown[LOCAL_ACC_W][RESERVATION_FAIL] = 0
	L2_cache_stats_breakdown[LOCAL_ACC_W][SECTOR_MISS] = 0
	L2_cache_stats_breakdown[LOCAL_ACC_W][MSHR_HIT] = 0
	L2_cache_stats_breakdown[L1_WRBK_ACC][HIT] = 0
	L2_cache_stats_breakdown[L1_WRBK_ACC][HIT_RESERVED] = 0
	L2_cache_stats_breakdown[L1_WRBK_ACC][MISS] = 0
	L2_cache_stats_breakdown[L1_WRBK_ACC][RESERVATION_FAIL] = 0
	L2_cache_stats_breakdown[L1_WRBK_ACC][SECTOR_MISS] = 0
	L2_cache_stats_breakdown[L1_WRBK_ACC][MSHR_HIT] = 0
	L2_cache_stats_breakdown[L2_WRBK_ACC][HIT] = 0
	L2_cache_stats_breakdown[L2_WRBK_ACC][HIT_RESERVED] = 0
	L2_cache_stats_breakdown[L2_WRBK_ACC][MISS] = 0
	L2_cache_stats_breakdown[L2_WRBK_ACC][RESERVATION_FAIL] = 0
	L2_cache_stats_breakdown[L2_WRBK_ACC][SECTOR_MISS] = 0
	L2_cache_stats_breakdown[L2_WRBK_ACC][MSHR_HIT] = 0
	L2_cache_stats_breakdown[INST_ACC_R][HIT] = 0
	L2_cache_stats_breakdown[INST_ACC_R][HIT_RESERVED] = 0
	L2_cache_stats_breakdown[INST_ACC_R][MISS] = 0
	L2_cache_stats_breakdown[INST_ACC_R][RESERVATION_FAIL] = 0
	L2_cache_stats_breakdown[INST_ACC_R][SECTOR_MISS] = 0
	L2_cache_stats_breakdown[INST_ACC_R][MSHR_HIT] = 0
	L2_cache_stats_breakdown[L1_WR_ALLOC_R][HIT] = 0
	L2_cache_stats_breakdown[L1_WR_ALLOC_R][HIT_RESERVED] = 0
	L2_cache_stats_breakdown[L1_WR_ALLOC_R][MISS] = 0
	L2_cache_stats_breakdown[L1_WR_ALLOC_R][RESERVATION_FAIL] = 0
	L2_cache_stats_breakdown[L1_WR_ALLOC_R][SECTOR_MISS] = 0
	L2_cache_stats_breakdown[L1_WR_ALLOC_R][MSHR_HIT] = 0
	L2_cache_stats_breakdown[L2_WR_ALLOC_R][HIT] = 0
	L2_cache_stats_breakdown[L2_WR_ALLOC_R][HIT_RESERVED] = 0
	L2_cache_stats_breakdown[L2_WR_ALLOC_R][MISS] = 0
	L2_cache_stats_breakdown[L2_WR_ALLOC_R][RESERVATION_FAIL] = 0
	L2_cache_stats_breakdown[L2_WR_ALLOC_R][SECTOR_MISS] = 0
	L2_cache_stats_breakdown[L2_WR_ALLOC_R][MSHR_HIT] = 0
	L2_cache_stats_breakdown[GLOBAL_ACC_R][TOTAL_ACCESS] = 466593
	L2_cache_stats_breakdown[GLOBAL_ACC_W][TOTAL_ACCESS] = 524294
L2_total_cache_reservation_fail_breakdown:
	L2_cache_stats_fail_breakdown[GLOBAL_ACC_R][MSHR_MERGE_ENRTY_FAIL] = 283
L2_cache_data_port_util = 0.152
L2_cache_fill_port_util = 0.161

icnt_total_pkts_mem_to_simt=983438
icnt_total_pkts_simt_to_mem=983438
LD_mem_lat_dist  0 0 0 0 0 0 0 0 0 0 0 0 0 0 0 0 0 0 0 0 0 0 0 0 0 0 0
ST_mem_lat_dist  0 0 0 0 0 0 0 0 0 0 0 0 0 0 0 0 0 0 0 0 0 0 0 0 0 0 0
----------------------------Interconnect-DETAILS--------------------------------
Req_Network_injected_packets_num = 983438
Req_Network_cycles = 42264
Req_Network_injected_packets_per_cycle =      23.2689 
Req_Network_conflicts_per_cycle =      34.5062
Req_Network_conflicts_per_cycle_util =      46.0068
Req_Bank_Level_Parallism =      31.0243
Req_Network_in_buffer_full_per_cycle =     322.4021
Req_Network_in_buffer_avg_util =     316.0421
Req_Network_out_buffer_full_per_cycle =       0.6784
Req_Network_out_buffer_avg_util =     152.3418

Reply_Network_injected_packets_num = 983438
Reply_Network_cycles = 42264
Reply_Network_injected_packets_per_cycle =       23.2689
Reply_Network_conflicts_per_cycle =       12.4700
Reply_Network_conflicts_per_cycle_util =      16.8899
Reply_Bank_Level_Parallism =      31.5164
Reply_Network_in_buffer_full_per_cycle =       0.2955
Reply_Network_in_buffer_avg_util =      65.8743
Reply_Network_out_buffer_full_per_cycle =       0.0000
Reply_Network_out_buffer_avg_util =       0.2909
----------------------------END-of-Interconnect-DETAILS-------------------------


gpgpu_simulation_time = 0 days, 1 hrs, 18 min, 29 sec (4709 sec)
gpgpu_simulation_rate = 31605 (inst/sec)
gpgpu_simulation_rate = 8 (cycle/sec)
gpgpu_silicon_slowdown = 141500000x
GPGPU-Sim: *** simulation thread exiting ***
GPGPU-Sim: *** exit detected ***
