Skipping setup_environment - already set
doing: export -n PTX_SIM_USE_PTX_FILE
doing: export LD_LIBRARY_PATH=/home/min/a/devlinc/Documents/ECE60827/hardware-sim-assgn-2/hardware-simulation-assignment-2-texashodlr/util/job_launching/../../sim_run_9.1/gpgpu-sim-builds/gpgpu-sim_git-commit-a5339f56558d282e0ff48181156f07c28d32c1b6_modified_0.0:/home/min/a/devlinc/Documents/ECE60827/hardware-sim-assgn-2/hardware-simulation-assignment-2-texashodlr/gpu-simulator/gpgpu-sim/lib/gcc-8.3.0/cuda-9010/release:/home/min/a/devlinc/Documents/ECE60827/hardware-sim-assgn-2/hardware-simulation-assignment-2-texashodlr/gpu-simulator/gpgpu-sim/lib/gcc-8.3.0/cuda-9010/release:/package/gcc/8.3.0/lib64:
doing: cd /home/min/a/devlinc/Documents/ECE60827/hardware-sim-assgn-2/hardware-simulation-assignment-2-texashodlr/util/job_launching/../../sim_run_9.1/backprop-rodinia-3.1/65536/QV100-PTX-1B_INSN
doing: export OPENCL_CURRENT_TEST_PATH=/home/min/a/devlinc/Documents/ECE60827/hardware-sim-assgn-2/hardware-simulation-assignment-2-texashodlr/util/job_launching/../../sim_run_9.1/backprop-rodinia-3.1/65536/QV100-PTX-1B_INSN
doing: export OPENCL_REMOTE_GPU_HOST=REPLACE_REMOTE_HOST
doing 
doing: export PATH=/home/min/a/devlinc/Documents/ECE60827/hardware-sim-assgn-2/hardware-simulation-assignment-2-texashodlr/gpu-simulator/gpgpu-sim/bin:/home/min/a/ee695paa/cuda/bin:/home/min/a/ee695paa/cuda/bin:/home/min/a/ee695paa/cuda/bin:/package/gcc/8.3.0/bin:/usr/lib64/qt-3.3/bin:/usr/lib64/ccache:/usr/local/bin:/usr/bin:/usr/local/sbin:/usr/sbin:.
doing export CUDA_LAUNCH_BLOCKING=1
doing:  /home/min/a/ee695paa/github/gpu-app-collection/src/..//bin/9.1/release/backprop-rodinia-3.1 65536


        *** GPGPU-Sim Simulator Version 4.0.0  [build gpgpu-sim_git-commit-a5339f56558d282e0ff48181156f07c28d32c1b6_modified_0.0] ***


GPGPU-Sim PTX: simulation mode 0 (can change with PTX_SIM_MODE_FUNC environment variable:
               1=functional simulation only, 0=detailed performance simulator)
GPGPU-Sim: Configuration options:

-save_embedded_ptx                      0 # saves ptx files embedded in binary as <n>.ptx
-keep                                   0 # keep intermediate files created by GPGPU-Sim when interfacing with external programs
-gpgpu_ptx_save_converted_ptxplus                    0 # Saved converted ptxplus to a file
-gpgpu_occupancy_sm_number                   70 # The SM number to pass to ptxas when getting register usage for computing GPU occupancy. This parameter is required in the config.
-ptx_opcode_latency_int      4,13,4,5,145,21 # Opcode latencies for integers <ADD,MAX,MUL,MAD,DIV,SHFL>Default 1,1,19,25,145,32
-ptx_opcode_latency_fp          4,13,4,5,39 # Opcode latencies for single precision floating points <ADD,MAX,MUL,MAD,DIV>Default 1,1,1,1,30
-ptx_opcode_latency_dp         8,19,8,8,330 # Opcode latencies for double precision floating points <ADD,MAX,MUL,MAD,DIV>Default 8,8,8,8,335
-ptx_opcode_latency_sfu                  100 # Opcode latencies for SFU instructionsDefault 8
-ptx_opcode_latency_tesnor                   64 # Opcode latencies for Tensor instructionsDefault 64
-ptx_opcode_initiation_int          2,2,2,2,8,4 # Opcode initiation intervals for integers <ADD,MAX,MUL,MAD,DIV,SHFL>Default 1,1,4,4,32,4
-ptx_opcode_initiation_fp            2,2,2,2,4 # Opcode initiation intervals for single precision floating points <ADD,MAX,MUL,MAD,DIV>Default 1,1,1,1,5
-ptx_opcode_initiation_dp          4,4,4,4,130 # Opcode initiation intervals for double precision floating points <ADD,MAX,MUL,MAD,DIV>Default 8,8,8,8,130
-ptx_opcode_initiation_sfu                    8 # Opcode initiation intervals for sfu instructionsDefault 8
-ptx_opcode_initiation_tensor                   64 # Opcode initiation intervals for tensor instructionsDefault 64
-cdp_latency         7200,8000,100,12000,1600 # CDP API latency <cudaStreamCreateWithFlags, cudaGetParameterBufferV2_init_perWarp, cudaGetParameterBufferV2_perKernel, cudaLaunchDeviceV2_init_perWarp, cudaLaunchDevicV2_perKernel>Default 7200,8000,100,12000,1600
-network_mode                           2 # Interconnection network mode
-inter_config_file                   mesh # Interconnection network config file
-icnt_in_buffer_limit                  512 # in_buffer_limit
-icnt_out_buffer_limit                  512 # out_buffer_limit
-icnt_subnets                           2 # subnets
-icnt_arbiter_algo                      1 # arbiter_algo
-icnt_verbose                           0 # inct_verbose
-icnt_grant_cycles                      1 # grant_cycles
-gpgpu_ptx_use_cuobjdump                    1 # Use cuobjdump to extract ptx and sass from binaries
-gpgpu_experimental_lib_support                    0 # Try to extract code from cuda libraries [Broken because of unknown cudaGetExportTable]
-checkpoint_option                      0 #  checkpointing flag (0 = no checkpoint)
-checkpoint_kernel                      1 #  checkpointing during execution of which kernel (1- 1st kernel)
-checkpoint_CTA                         0 #  checkpointing after # of CTA (< less than total CTA)
-resume_option                          0 #  resume flag (0 = no resume)
-resume_kernel                          0 #  Resume from which kernel (1= 1st kernel)
-resume_CTA                             0 #  resume from which CTA 
-checkpoint_CTA_t                       0 #  resume from which CTA 
-checkpoint_insn_Y                      0 #  resume from which CTA 
-gpgpu_ptx_convert_to_ptxplus                    0 # Convert SASS (native ISA) to ptxplus and run ptxplus
-gpgpu_ptx_force_max_capability                   70 # Force maximum compute capability
-gpgpu_ptx_inst_debug_to_file                    0 # Dump executed instructions' debug information to file
-gpgpu_ptx_inst_debug_file       inst_debug.txt # Executed instructions' debug output file
-gpgpu_ptx_inst_debug_thread_uid                    1 # Thread UID for executed instructions' debug output
-gpgpu_simd_model                       1 # 1 = post-dominator
-gpgpu_shader_core_pipeline              2048:32 # shader core pipeline config, i.e., {<nthread>:<warpsize>}
-gpgpu_tex_cache:l1  N:4:128:256,L:R:m:N:L,T:512:8,128:2 # per-shader L1 texture cache  (READ-ONLY) config  {<nsets>:<bsize>:<assoc>,<rep>:<wr>:<alloc>:<wr_alloc>,<mshr>:<N>:<merge>,<mq>:<rf>}
-gpgpu_const_cache:l1 N:128:64:8,L:R:f:N:L,S:2:64,4 # per-shader L1 constant memory cache  (READ-ONLY) config  {<nsets>:<bsize>:<assoc>,<rep>:<wr>:<alloc>:<wr_alloc>,<mshr>:<N>:<merge>,<mq>} 
-gpgpu_cache:il1     N:64:128:16,L:R:f:N:L,S:2:48,4 # shader L1 instruction cache config  {<nsets>:<bsize>:<assoc>,<rep>:<wr>:<alloc>:<wr_alloc>,<mshr>:<N>:<merge>,<mq>} 
-gpgpu_cache:dl1     S:1:128:256,L:L:m:N:L,A:512:8,16:0,32 # per-shader L1 data cache config  {<nsets>:<bsize>:<assoc>,<rep>:<wr>:<alloc>:<wr_alloc>,<mshr>:<N>:<merge>,<mq> | none}
-gpgpu_l1_banks                         4 # The number of L1 cache banks
-gpgpu_l1_banks_byte_interleaving                   32 # l1 banks byte interleaving granularity
-gpgpu_l1_banks_hashing_function                    0 # l1 banks hashing function
-gpgpu_l1_latency                      20 # L1 Hit Latency
-gpgpu_smem_latency                    20 # smem Latency
-gpgpu_cache:dl1PrefL1                 none # per-shader L1 data cache config  {<nsets>:<bsize>:<assoc>,<rep>:<wr>:<alloc>:<wr_alloc>,<mshr>:<N>:<merge>,<mq> | none}
-gpgpu_cache:dl1PrefShared                 none # per-shader L1 data cache config  {<nsets>:<bsize>:<assoc>,<rep>:<wr>:<alloc>:<wr_alloc>,<mshr>:<N>:<merge>,<mq> | none}
-gpgpu_gmem_skip_L1D                    0 # global memory access skip L1D cache (implements -Xptxas -dlcm=cg, default=no skip)
-gpgpu_perfect_mem                      0 # enable perfect memory mode (no cache miss)
-n_regfile_gating_group                    4 # group of lanes that should be read/written together)
-gpgpu_clock_gated_reg_file                    0 # enable clock gated reg file for power calculations
-gpgpu_clock_gated_lanes                    0 # enable clock gated lanes for power calculations
-gpgpu_shader_registers                65536 # Number of registers per shader core. Limits number of concurrent CTAs. (default 8192)
-gpgpu_registers_per_block                65536 # Maximum number of registers per CTA. (default 8192)
-gpgpu_ignore_resources_limitation                    0 # gpgpu_ignore_resources_limitation (default 0)
-gpgpu_shader_cta                      32 # Maximum number of concurrent CTAs in shader (default 8)
-gpgpu_num_cta_barriers                   16 # Maximum number of named barriers per CTA (default 16)
-gpgpu_n_clusters                      80 # number of processing clusters
-gpgpu_n_cores_per_cluster                    1 # number of simd cores per cluster
-gpgpu_n_cluster_ejection_buffer_size                   32 # number of packets in ejection buffer
-gpgpu_n_ldst_response_buffer_size                    2 # number of response packets in ld/st unit ejection buffer
-gpgpu_shmem_per_block                65536 # Size of shared memory per thread block or CTA (default 48kB)
-gpgpu_shmem_size                   98304 # Size of shared memory per shader core (default 16kB)
-gpgpu_adaptive_cache_config                    1 # adaptive_cache_config
-gpgpu_shmem_sizeDefault                98304 # Size of shared memory per shader core (default 16kB)
-gpgpu_shmem_size_PrefL1                16384 # Size of shared memory per shader core (default 16kB)
-gpgpu_shmem_size_PrefShared                16384 # Size of shared memory per shader core (default 16kB)
-gpgpu_shmem_num_banks                   32 # Number of banks in the shared memory in each shader core (default 16)
-gpgpu_shmem_limited_broadcast                    0 # Limit shared memory to do one broadcast per cycle (default on)
-gpgpu_shmem_warp_parts                    1 # Number of portions a warp is divided into for shared memory bank conflict check 
-gpgpu_mem_unit_ports                    1 # The number of memory transactions allowed per core cycle
-gpgpu_shmem_warp_parts                    1 # Number of portions a warp is divided into for shared memory bank conflict check 
-gpgpu_warpdistro_shader                   -1 # Specify which shader core to collect the warp size distribution from
-gpgpu_warp_issue_shader                    0 # Specify which shader core to collect the warp issue distribution from
-gpgpu_local_mem_map                    1 # Mapping from local memory space address to simulated GPU physical address space (default = enabled)
-gpgpu_num_reg_banks                   16 # Number of register banks (default = 8)
-gpgpu_reg_bank_use_warp_id                    0 # Use warp ID in mapping registers to banks (default = off)
-gpgpu_sub_core_model                    1 # Sub Core Volta/Pascal model (default = off)
-gpgpu_enable_specialized_operand_collector                    0 # enable_specialized_operand_collector
-gpgpu_operand_collector_num_units_sp                    4 # number of collector units (default = 4)
-gpgpu_operand_collector_num_units_dp                    0 # number of collector units (default = 0)
-gpgpu_operand_collector_num_units_sfu                    4 # number of collector units (default = 4)
-gpgpu_operand_collector_num_units_int                    0 # number of collector units (default = 0)
-gpgpu_operand_collector_num_units_tensor_core                    4 # number of collector units (default = 4)
-gpgpu_operand_collector_num_units_mem                    2 # number of collector units (default = 2)
-gpgpu_operand_collector_num_units_gen                    8 # number of collector units (default = 0)
-gpgpu_operand_collector_num_in_ports_sp                    1 # number of collector unit in ports (default = 1)
-gpgpu_operand_collector_num_in_ports_dp                    0 # number of collector unit in ports (default = 0)
-gpgpu_operand_collector_num_in_ports_sfu                    1 # number of collector unit in ports (default = 1)
-gpgpu_operand_collector_num_in_ports_int                    0 # number of collector unit in ports (default = 0)
-gpgpu_operand_collector_num_in_ports_tensor_core                    1 # number of collector unit in ports (default = 1)
-gpgpu_operand_collector_num_in_ports_mem                    1 # number of collector unit in ports (default = 1)
-gpgpu_operand_collector_num_in_ports_gen                    8 # number of collector unit in ports (default = 0)
-gpgpu_operand_collector_num_out_ports_sp                    1 # number of collector unit in ports (default = 1)
-gpgpu_operand_collector_num_out_ports_dp                    0 # number of collector unit in ports (default = 0)
-gpgpu_operand_collector_num_out_ports_sfu                    1 # number of collector unit in ports (default = 1)
-gpgpu_operand_collector_num_out_ports_int                    0 # number of collector unit in ports (default = 0)
-gpgpu_operand_collector_num_out_ports_tensor_core                    1 # number of collector unit in ports (default = 1)
-gpgpu_operand_collector_num_out_ports_mem                    1 # number of collector unit in ports (default = 1)
-gpgpu_operand_collector_num_out_ports_gen                    8 # number of collector unit in ports (default = 0)
-gpgpu_coalesce_arch                   60 # Coalescing arch (GT200 = 13, Fermi = 20)
-gpgpu_num_sched_per_core                    4 # Number of warp schedulers per core
-gpgpu_max_insn_issue_per_warp                    1 # Max number of instructions that can be issued per warp in one cycle by scheduler (either 1 or 2)
-gpgpu_dual_issue_diff_exec_units                    1 # should dual issue use two different execution unit resources (Default = 1)
-gpgpu_simt_core_sim_order                    1 # Select the simulation order of cores in a cluster (0=Fix, 1=Round-Robin)
-gpgpu_pipeline_widths 4,4,4,4,4,4,4,4,4,4,8,4,4 # Pipeline widths ID_OC_SP,ID_OC_DP,ID_OC_INT,ID_OC_SFU,ID_OC_MEM,OC_EX_SP,OC_EX_DP,OC_EX_INT,OC_EX_SFU,OC_EX_MEM,EX_WB,ID_OC_TENSOR_CORE,OC_EX_TENSOR_CORE
-gpgpu_tensor_core_avail                    1 # Tensor Core Available (default=0)
-gpgpu_num_sp_units                     4 # Number of SP units (default=1)
-gpgpu_num_dp_units                     4 # Number of DP units (default=0)
-gpgpu_num_int_units                    4 # Number of INT units (default=0)
-gpgpu_num_sfu_units                    4 # Number of SF units (default=1)
-gpgpu_num_tensor_core_units                    4 # Number of tensor_core units (default=1)
-gpgpu_num_mem_units                    1 # Number if ldst units (default=1) WARNING: not hooked up to anything
-gpgpu_scheduler                      gto # Scheduler configuration: < lrr | gto | two_level_active > If two_level_active:<num_active_warps>:<inner_prioritization>:<outer_prioritization>For complete list of prioritization values see shader.h enum scheduler_prioritization_typeDefault: gto
-gpgpu_concurrent_kernel_sm                    0 # Support concurrent kernels on a SM (default = disabled)
-gpgpu_perfect_inst_const_cache                    1 # perfect inst and const cache mode, so all inst and const hits in the cache(default = disabled)
-gpgpu_inst_fetch_throughput                    4 # the number of fetched intruction per warp each cycle
-gpgpu_reg_file_port_throughput                    2 # the number ports of the register file
-specialized_unit_1         0,4,4,4,4,BRA # specialized unit config {<enabled>,<num_units>:<latency>:<initiation>,<ID_OC_SPEC>:<OC_EX_SPEC>,<NAME>}
-specialized_unit_2         0,4,4,4,4,BRA # specialized unit config {<enabled>,<num_units>:<latency>:<initiation>,<ID_OC_SPEC>:<OC_EX_SPEC>,<NAME>}
-specialized_unit_3         0,4,4,4,4,BRA # specialized unit config {<enabled>,<num_units>:<latency>:<initiation>,<ID_OC_SPEC>:<OC_EX_SPEC>,<NAME>}
-specialized_unit_4         0,4,4,4,4,BRA # specialized unit config {<enabled>,<num_units>:<latency>:<initiation>,<ID_OC_SPEC>:<OC_EX_SPEC>,<NAME>}
-specialized_unit_5         0,4,4,4,4,BRA # specialized unit config {<enabled>,<num_units>:<latency>:<initiation>,<ID_OC_SPEC>:<OC_EX_SPEC>,<NAME>}
-specialized_unit_6         0,4,4,4,4,BRA # specialized unit config {<enabled>,<num_units>:<latency>:<initiation>,<ID_OC_SPEC>:<OC_EX_SPEC>,<NAME>}
-specialized_unit_7         0,4,4,4,4,BRA # specialized unit config {<enabled>,<num_units>:<latency>:<initiation>,<ID_OC_SPEC>:<OC_EX_SPEC>,<NAME>}
-specialized_unit_8         0,4,4,4,4,BRA # specialized unit config {<enabled>,<num_units>:<latency>:<initiation>,<ID_OC_SPEC>:<OC_EX_SPEC>,<NAME>}
-gpgpu_perf_sim_memcpy                    1 # Fill the L2 cache on memcpy
-gpgpu_simple_dram_model                    0 # simple_dram_model with fixed latency and BW
-gpgpu_dram_scheduler                    1 # 0 = fifo, 1 = FR-FCFS (defaul)
-gpgpu_dram_partition_queues          64:64:64:64 # i2$:$2d:d2$:$2i
-l2_ideal                               0 # Use a ideal L2 cache that always hit
-gpgpu_cache:dl2     S:32:128:24,L:B:m:L:P,A:192:4,32:0,32 # unified banked L2 data cache config  {<nsets>:<bsize>:<assoc>,<rep>:<wr>:<alloc>:<wr_alloc>,<mshr>:<N>:<merge>,<mq>}
-gpgpu_cache:dl2_texture_only                    0 # L2 cache used for texture only
-gpgpu_n_mem                           32 # number of memory modules (e.g. memory controllers) in gpu
-gpgpu_n_sub_partition_per_mchannel                    2 # number of memory subpartition in each memory module
-gpgpu_n_mem_per_ctrlr                    1 # number of memory chips per memory controller
-gpgpu_memlatency_stat                   14 # track and display latency statistics 0x2 enables MC, 0x4 enables queue logs
-gpgpu_frfcfs_dram_sched_queue_size                   64 # 0 = unlimited (default); # entries per chip
-gpgpu_dram_return_queue_size                  192 # 0 = unlimited (default); # entries per chip
-gpgpu_dram_buswidth                   16 # default = 4 bytes (8 bytes per cycle at DDR)
-gpgpu_dram_burst_length                    2 # Burst length of each DRAM request (default = 4 data bus cycle)
-dram_data_command_freq_ratio                    2 # Frbf829c6e4c955cf9d9bb3b4ce7c252f4  /home/min/a/ee695paa/github/gpu-app-collection/bin/9.1/release/backprop-rodinia-3.1
Extracting PTX file and ptxas options    1: backprop-rodinia-3.1.sm_30.ptx -arch=sm_30
Extracting PTX file and ptxas options    2: backprop-rodinia-3.2.sm_35.ptx -arch=sm_35
Extracting PTX file and ptxas options    3: backprop-rodinia-3.3.sm_50.ptx -arch=sm_50
Extracting PTX file and ptxas options    4: backprop-rodinia-3.4.sm_60.ptx -arch=sm_60
equency ratio between DRAM data bus and command bus (default = 2 times, i.e. DDR)
-gpgpu_dram_timing_opt nbk=16:CCD=1:RRD=3:RCD=12:RAS=28:RP=12:RC=40: CL=12:WL=2:CDLR=3:WR=10:nbkgrp=4:CCDL=2:RTPL=3 # DRAM timing parameters = {nbk:tCCD:tRRD:tRCD:tRAS:tRP:tRC:CL:WL:tCDLR:tWR:nbkgrp:tCCDL:tRTPL}
-gpgpu_l2_rop_latency                  160 # ROP queue latency (default 85)
-dram_latency                         100 # DRAM latency (default 30)
-dram_dual_bus_interface                    1 # dual_bus_interface (default = 0) 
-dram_bnk_indexing_policy                    0 # dram_bnk_indexing_policy (0 = normal indexing, 1 = Xoring with the higher bits) (Default = 0)
-dram_bnkgrp_indexing_policy                    1 # dram_bnkgrp_indexing_policy (0 = take higher bits, 1 = take lower bits) (Default = 0)
-dram_seperate_write_queue_enable                    0 # Seperate_Write_Queue_Enable
-dram_write_queue_size             32:28:16 # Write_Queue_Size
-dram_elimnate_rw_turnaround                    0 # elimnate_rw_turnaround i.e set tWTR and tRTW = 0
-icnt_flit_size                        40 # icnt_flit_size
-gpgpu_mem_addr_mapping dramid@8;00000000.00000000.00000000.00000000.0000RRRR.RRRRRRRR.RBBBCCCB.CCCSSSSS # mapping memory address to dram model {dramid@<start bit>;<memory address map>}
-gpgpu_mem_addr_test                    0 # run sweep test to check address mapping for aliased address
-gpgpu_mem_address_mask                    1 # 0 = old addressing mask, 1 = new addressing mask, 2 = new add. mask + flipped bank sel and chip sel bits
-gpgpu_memory_partition_indexing                    2 # 0 = no indexing, 1 = bitwise xoring, 2 = IPoly, 3 = custom indexing
-gpuwattch_xml_file         gpuwattch.xml # GPUWattch XML file
-power_simulation_enabled                    0 # Turn on power simulator (1=On, 0=Off)
-power_per_cycle_dump                    0 # Dump detailed power output each cycle
-power_trace_enabled                    0 # produce a file for the power trace (1=On, 0=Off)
-power_trace_zlevel                     6 # Compression level of the power trace output log (0=no comp, 9=highest)
-steady_power_levels_enabled                    0 # produce a file for the steady power levels (1=On, 0=Off)
-steady_state_definition                  8:4 # allowed deviation:number of samples
-gpgpu_max_cycle                        0 # terminates gpu simulation early (0 = no limit)
-gpgpu_max_insn                1000000000 # terminates gpu simulation early (0 = no limit)
-gpgpu_max_cta                          0 # terminates gpu simulation early (0 = no limit)
-gpgpu_max_completed_cta                    0 # terminates gpu simulation early (0 = no limit)
-gpgpu_runtime_stat                   500 # display runtime statistics such as dram utilization {<freq>:<flag>}
-liveness_message_freq                    1 # Minimum number of seconds between simulation liveness messages (0 = always print)
-gpgpu_compute_capability_major                    7 # Major compute capability version number
-gpgpu_compute_capability_minor                    0 # Minor compute capability version number
-gpgpu_flush_l1_cache                    1 # Flush L1 cache at the end of each kernel call
-gpgpu_flush_l2_cache                    0 # Flush L2 cache at the end of each kernel call
-gpgpu_deadlock_detect                    1 # Stop the simulation at deadlock (1=on (default), 0=off)
-gpgpu_ptx_instruction_classification                    0 # if enabled will classify ptx instruction types per kernel (Max 255 kernels now)
-gpgpu_ptx_sim_mode                     0 # Select between Performance (default) or Functional simulation (1)
-gpgpu_clock_domains 1132.0:1132.0:1132.0:850.0 # Clock Domain Frequencies in MhZ {<Core Clock>:<ICNT Clock>:<L2 Clock>:<DRAM Clock>}
-gpgpu_max_concurrent_kernel                    8 # maximum kernels that can run concurrently on GPU
-gpgpu_cflog_interval                    0 # Interval between each snapshot in control flow logger
-visualizer_enabled                     0 # Turn on visualizer output (1=On, 0=Off)
-visualizer_outputfile                 NULL # Specifies the output log file for visualizer
-visualizer_zlevel                      6 # Compression level of the visualizer output log (0=no comp, 9=highest)
-gpgpu_stack_size_limit                 1024 # GPU thread stack size
-gpgpu_heap_size_limit              8388608 # GPU malloc heap size 
-gpgpu_runtime_sync_depth_limit                    2 # GPU device runtime synchronize depth
-gpgpu_runtime_pending_launch_count_limit                 2048 # GPU device runtime pending launch count
-trace_enabled                          0 # Turn on traces
-trace_components                    none # comma seperated list of traces to enable. Complete list found in trace_streams.tup. Default none
-trace_sampling_core                    0 # The core which is printed using CORE_DPRINTF. Default 0
-trace_sampling_memory_partition                   -1 # The memory partition which is printed using MEMPART_DPRINTF. Default -1 (i.e. all)
-enable_ptx_file_line_stats                    1 # Turn on PTX source line statistic profiling. (1 = On)
-ptx_line_stats_filename gpgpu_inst_stats.txt # Output file for PTX source line statistics.
-gpgpu_kernel_launch_latency                 5000 # Kernel launch latency in cycles. Default: 0
-gpgpu_cdp_enabled                      0 # Turn on CDP
-gpgpu_TB_launch_latency                    0 # thread block launch latency in cycles. Default: 0
DRAM Timing Options:
nbk                                    16 # number of banks
CCD                                     1 # column to column delay
RRD                                     3 # minimal delay between activation of rows in different banks
RCD                                    12 # row to column delay
RAS                                    28 # time needed to activate row
RP                                     12 # time needed to precharge (deactivate) row
RC                                     40 # row cycle time
CDLR                                    3 # switching from write to read (changes tWTR)
WR                                     10 # last data-in to row precharge
CL                                     12 # CAS latency
WL                                      2 # Write latency
nbkgrp                                  4 # number of bank groups
CCDL                                    2 # column to column delay between accesses to different bank groups
RTPL                                    3 # read to precharge delay between accesses to different bank groups
Total number of memory sub partition = 64
addr_dec_mask[CHIP]  = 0000000000001f00 	high:13 low:8
addr_dec_mask[BK]    = 00000000000e2000 	high:20 low:13
addr_dec_mask[ROW]   = 00000001fff00000 	high:33 low:20
addr_dec_mask[COL]   = 000000000001c0ff 	high:17 low:0
addr_dec_mask[BURST] = 000000000000001f 	high:5 low:0
sub_partition_id_mask = 0000000000002000
GPGPU-Sim uArch: clock freqs: 1132000000.000000:1132000000.000000:1132000000.000000:850000000.000000
GPGPU-Sim uArch: clock periods: 0.00000000088339222615:0.00000000088339222615:0.00000000088339222615:0.00000000117647058824
*** Initializing Memory Statistics ***
GPGPU-Sim uArch: performance model initialization complete.
self exe links to: /home/min/a/ee695paa/github/gpu-app-collection/bin/9.1/release/backprop-rodinia-3.1
self exe links to: /home/min/a/ee695paa/github/gpu-app-collection/bin/9.1/release/backprop-rodinia-3.1
9.1
GPGPU-Sim PTX: __cudaRegisterFatBinary, fat_cubin_handle = 1, filename=default
self exe links to: /home/min/a/ee695paa/github/gpu-app-collection/bin/9.1/release/backprop-rodinia-3.1
Running md5sum using "md5sum /home/min/a/ee695paa/github/gpu-app-collection/bin/9.1/release/backprop-rodinia-3.1 "
self exe links to: /home/min/a/ee695paa/github/gpu-app-collection/bin/9.1/release/backprop-rodinia-3.1
Extracting specific PTX file named backprop-rodinia-3.1.sm_30.ptx 
Extracting specific PTX file named backprop-rodinia-3.2.sm_35.ptx 
Extracting specific PTX file named backprop-rodinia-3.3.sm_50.ptx 
Extracting specific PTX file named backprop-rodinia-3.4.sm_60.ptx 
Extracting specific PTX file named backprop-rodiniExtracting PTX file and ptxas options    5: backprop-rodinia-3.5.sm_62.ptx -arch=sm_62
Extracting PTX file and ptxas options    6: backprop-rodinia-3.6.sm_70.ptx -arch=sm_70
a-3.5.sm_62.ptx 
Extracting specific PTX file named backprop-rodinia-3.6.sm_70.ptx 
GPGPU-Sim PTX: __cudaRegisterFunction _Z24bpnn_adjust_weights_cudaPfiS_iS_S_ : hostFun 0x0x402070, fat_cubin_handle = 1
GPGPU-Sim PTX: Parsing backprop-rodinia-3.1.sm_30.ptx
GPGPU-Sim PTX: allocating shared region for "_Z22bpnn_layerforward_CUDAPfS_S_S_ii$__cuda_local_var_16193_34_non_const_input_node" from 0x0 to 0x40 (shared memory space)
GPGPU-Sim PTX: allocating shared region for "_Z22bpnn_layerforward_CUDAPfS_S_S_ii$__cuda_local_var_16194_34_non_const_weight_matrix" from 0x80 to 0x480 (shared memory space)
GPGPU-Sim PTX: instruction assembly for function '_Z22bpnn_layerforward_CUDAPfS_S_S_ii'...   done.
GPGPU-Sim PTX: instruction assembly for function '_Z24bpnn_adjust_weights_cudaPfiS_iS_S_'...   done.
GPGPU-Sim PTX: finished parsing EMBEDDED .ptx file backprop-rodinia-3.1.sm_30.ptx
GPGPU-Sim PTX: Parsing backprop-rodinia-3.2.sm_35.ptx
GPGPU-Sim PTX: Warning %p0 was declared previous at backprop-rodinia-3.1.sm_30.ptx:26 skipping new declaration
GPGPU-Sim PTX: Warning %p1 was declared previous at backprop-rodinia-3.1.sm_30.ptx:26 skipping new declaration
GPGPU-Sim PTX: Warning %p2 was declared previous at backprop-rodinia-3.1.sm_30.ptx:26 skipping new declaration
GPGPU-Sim PTX: Warning %p3 was declared previous at backprop-rodinia-3.1.sm_30.ptx:26 skipping new declaration
GPGPU-Sim PTX: Warning %p4 was declared previous at backprop-rodinia-3.1.sm_30.ptx:26 skipping new declaration
GPGPU-Sim PTX: Warning %p5 was declared previous at backprop-rodinia-3.1.sm_30.ptx:26 skipping new declaration
GPGPU-Sim PTX: Warning %f0 was declared previous at backprop-rodinia-3.1.sm_30.ptx:27 skipping new declaration
GPGPU-Sim PTX: Warning %f1 was declared previous at backprop-rodinia-3.1.sm_30.ptx:27 skipping new declaration
GPGPU-Sim PTX: Warning %f2 was declared previous at backprop-rodinia-3.1.sm_30.ptx:27 skipping new declaration
GPGPU-Sim PTX: Warning %f3 was declared previous at backprop-rodinia-3.1.sm_30.ptx:27 skipping new declaration
GPGPU-Sim PTX: Warning %f4 was declared previous at backprop-rodinia-3.1.sm_30.ptx:27 skipping new declaration
GPGPU-Sim PTX: Warning %f5 was declared previous at backprop-rodinia-3.1.sm_30.ptx:27 skipping new declaration
GPGPU-Sim PTX: Warning %f6 was declared previous at backprop-rodinia-3.1.sm_30.ptx:27 skipping new declaration
GPGPU-Sim PTX: Warning %f7 was declared previous at backprop-rodinia-3.1.sm_30.ptx:27 skipping new declaration
GPGPU-Sim PTX: Warning %f8 was declared previous at backprop-rodinia-3.1.sm_30.ptx:27 skipping new declaration
GPGPU-Sim PTX: Warning %f9 was declared previous at backprop-rodinia-3.1.sm_30.ptx:27 skipping new declaration
GPGPU-Sim PTX: Warning %f10 was declared previous at backprop-rodinia-3.1.sm_30.ptx:27 skipping new declaration
GPGPU-Sim PTX: Warning %f11 was declared previous at backprop-rodinia-3.1.sm_30.ptx:27 skipping new declaration
GPGPU-Sim PTX: Warning %f12 was declared previous at backprop-rodinia-3.1.sm_30.ptx:27 skipping new declaration
GPGPU-Sim PTX: Warning %f13 was declared previous at backprop-rodinia-3.1.sm_30.ptx:27 skipping new declaration
GPGPU-Sim PTX: Warning %f14 was declared previous at backprop-rodinia-3.1.sm_30.ptx:27 skipping new declaration
GPGPU-Sim PTX: Warning %f15 was declared previous at backprop-rodinia-3.1.sm_30.ptx:27 skipping new declaration
GPGPU-Sim PTX: Warning %f16 was declared previous at backprop-rodinia-3.1.sm_30.ptx:27 skipping new declaration
GPGPU-Sim PTX: Warning %f17 was declared previous at backprop-rodinia-3.1.sm_30.ptx:27 skipping new declaration
GPGPU-Sim PTX: Warning %f18 was declared previous at backprop-rodinia-3.1.sm_30.ptx:27 skipping new declaration
GPGPU-Sim PTX: Warning %f19 was declared previous at backprop-rodinia-3.1.sm_30.ptx:27 skipping new declaration
GPGPU-Sim PTX: Warning %f20 was declared previous at backprop-rodinia-3.1.sm_30.ptx:27 skipping new declaration
GPGPU-Sim PTX: Warning %r0 was declared previous at backprop-rodinia-3.1.sm_30.ptx:28 skipping new declaration
GPGPU-Sim PTX: Warning %r1 was declared previous at backprop-rodinia-3.1.sm_30.ptx:28 skipping new declaration
GPGPU-Sim PTX: Warning %r2 was declared previous at backprop-rodinia-3.1.sm_30.ptx:28 skipping new declaration
GPGPU-Sim PTX: Warning %r3 was declared previous at backprop-rodinia-3.1.sm_30.ptx:28 skipping new declaration
GPGPU-Sim PTX: Warning %r4 was declared previous at backprop-rodinia-3.1.sm_30.ptx:28 skipping new declaration
GPGPU-Sim PTX: Warning %r5 was declared previous at backprop-rodinia-3.1.sm_30.ptx:28 skipping new declaration
GPGPU-Sim PTX: Warning %r6 was declared previous at backprop-rodinia-3.1.sm_30.ptx:28 skipping new declaration
GPGPU-Sim PTX: Warning %r7 was declared previous at backprop-rodinia-3.1.sm_30.ptx:28 skipping new declaration
GPGPU-Sim PTX: Warning %r8 was declared previous at backprop-rodinia-3.1.sm_30.ptx:28 skipping new declaration
GPGPU-Sim PTX: Warning %r9 was declared previous at backprop-rodinia-3.1.sm_30.ptx:28 skipping new declaration
GPGPU-Sim PTX: Warning %r10 was declared previous at backprop-rodinia-3.1.sm_30.ptx:28 skipping new declaration
GPGPU-Sim PTX: Warning %r11 was declared previous at backprop-rodinia-3.1.sm_30.ptx:28 skipping new declaration
GPGPU-Sim PTX: Warning %r12 was declared previous at backprop-rodinia-3.1.sm_30.ptx:28 skipping new declaration
GPGPU-Sim PTX: Warning %r13 was declared previous at backprop-rodinia-3.1.sm_30.ptx:28 skipping new declaration
GPGPU-Sim PTX: Warning %r14 was declared previous at backprop-rodinia-3.1.sm_30.ptx:28 skipping new declaration
GPGPU-Sim PTX: Warning %r15 was declared previous at backprop-rodinia-3.1.sm_30.ptx:28 skipping new declaration
GPGPU-Sim PTX: Warning %r16 was declared previous at backprop-rodinia-3.1.sm_30.ptx:28 skipping new declaration
GPGPU-Sim PTX: Warning %r17 was declared previous at backprop-rodinia-3.1.sm_30.ptx:28 skipping new declaration
GPGPU-Sim PTX: Warning %r18 was declared previous at backprop-rodinia-3.1.sm_30.ptx:28 skipping new declaration
GPGPU-Sim PTX: Warning %r19 was declared previous at backprop-rodinia-3.1.sm_30.ptx:28 skipping new declaration
GPGPU-Sim PTX: Warning %r20 was declared previous at backprop-rodinia-3.1.sm_30.ptx:28 skipping new declaration
GPGPU-Sim PTX: Warning %r21 was declared previous at backprop-rodinia-3.1.sm_30.ptx:28 skipping new declaration
GPGPU-Sim PTX: Warning %r22 was declared previous at backprop-rodinia-3.1.sm_30.ptx:28 skipping new declaration
GPGPU-Sim PTX: Warning %r23 was declared previous at backprop-rodinia-3.1.sm_30.ptx:28 skipping new declaration
GPGPU-Sim PTX: Warning %r24 was declared previous at backprop-rodinia-3.1.sm_30.ptx:28 skipping new declaration
GPGPU-Sim PTX: Warning %r25 was declared previous at backprop-rodinia-3.1.sm_30.ptx:28 skipping new declaration
GPGPU-Sim PTX: Warning %r26 was declared previous at backprop-rodinia-3.1.sm_30.ptx:28 skipping new declaration
GPGPU-Sim PTX: Warning %r27 was declared previous at backprop-rodinia-3.1.sm_30.ptx:28 skipping new declaration
GPGPU-Sim PTX: Warning %r28 was declared previous at backprop-rodinia-3.1.sm_30.ptx:28 skipping new declaration
GPGPU-Sim PTX: Warning %r29 was declared previous at backprop-rodinia-3.1.sm_30.ptx:28 skipping new declaration
GPGPU-Sim PTX: Warning %r30 was declared previous at backprop-rodinia-3.1.sm_30.ptx:28 skipping new declaration
GPGPU-Sim PTX: Warning %r31 was declared previous at backprop-rodinia-3.1.sm_30.ptx:28 skipping new declaration
GPGPU-Sim PTX: Warning %r32 was declared previous at backprop-rodinia-3.1.sm_30.ptx:28 skipping new declaration
GPGPU-Sim PTX: Warning %r33 was declared previous at backprop-rodinia-3.1.sm_30.ptx:28 skipping new declaration
GPGPU-Sim PTX: Warning %r34 was declared previous at backprop-rodinia-3.1.sm_30.ptx:28 skipping new declaration
GPGPU-Sim PTX: Warning %r35 was declared previous at backprop-rodinia-3.1.sm_30.ptx:28 skipping new declaration
GPGPU-Sim PTX: Warning %r36 was declared previous at backprop-rodinia-3.1.sm_30.ptx:28 skipping new declaration
GPGPU-Sim PTX: Warning %rd0 was declared previous at backprop-rodinia-3.1.sm_30.ptx:29 skipping new declaration
GPGPU-Sim PTX: Warning %rd1 was declared previous at backprop-rodinia-3.1.sm_30.ptx:29 skipping new declaration
GPGPU-Sim PTX: Warning %rd2 was declared previous at backprop-rodinia-3.1.sm_30.ptx:29 skipping new declaration
GPGPU-Sim PTX: Warning %rd3 was declared previous at backprop-rodinia-3.1.sm_30.ptx:29 skipping new declaration
GPGPU-Sim PTX: Warning %rd4 was declared previous at backprop-rodinia-3.1.sm_30.ptx:29 skipping new declaration
GPGPU-Sim PTX: Warning %rd5 was declared previous at backprop-rodinia-3.1.sm_30.ptx:29 skipping new declaration
GPGPU-Sim PTX: Warning %rd6 was declared previous at backprop-rodinia-3.1.sm_30.ptx:29 skipping new declaration
GPGPU-Sim PTX: Warning %rd7 was declared previous at backprop-rodinia-3.1.sm_30.ptx:29 skipping new declaration
GPGPU-Sim PTX: Warning %rd8 was declared previous at backprop-rodinia-3.1.sm_30.ptx:29 skipping new declaration
GPGPU-Sim PTX: Warning %rd9 was declared previous at backprop-rodinia-3.1.sm_30.ptx:29 skipping new declaration
GPGPU-Sim PTX: Warning %rd10 was declared previous at backprop-rodinia-3.1.sm_30.ptx:29 skipping new declaration
GPGPU-Sim PTX: Warning %rd11 was declared previous at backprop-rodinia-3.1.sm_30.ptx:29 skipping new declaration
GPGPU-Sim PTX: Warning %rd12 was declared previous at backprop-rodinia-3.1.sm_30.ptx:29 skipping new declaration
GPGPU-Sim PTX: allocating shared region for "_Z22bpnn_layerforward_CUDAPfS_S_S_ii$__cuda_local_var_16773_34_non_const_input_node" from 0x480 to 0x4c0 (shared memory space)
GPGPU-Sim PTX: allocating shared region for "_Z22bpnn_layerforward_CUDAPfS_S_S_ii$__cuda_local_var_16774_34_non_const_weight_matrix" from 0x500 to 0x900 (shared memory space)
GPGPU-Sim PTX: instruction assembly for function '_Z22bpnn_layerforward_CUDAPfS_S_S_ii'...   done.
GPGPU-Sim PTX: Warning %p0 was declared previous at backprop-rodinia-3.1.sm_30.ptx:145 skipping new declaration
GPGPU-Sim PTX: Warning %p1 was declared previous at backprop-rodinia-3.1.sm_30.ptx:145 skipping new declaration
GPGPU-Sim PTX: Warning %f0 was declared previous at backprop-rodinia-3.1.sm_30.ptx:146 skipping new declaration
GPGPU-Sim PTX: Warning %f1 was declared previous at backprop-rodinia-3.1.sm_30.ptx:146 skipping new declaration
GPGPU-Sim PTX: Warning %f2 was declared previous at backprop-rodinia-3.1.sm_30.ptx:146 skipping new declaration
GPGPU-Sim PTX: Warning %f3 was declared previous at backprop-rodinia-3.1.sm_30.ptx:146 skipping new declaration
GPGPU-Sim PTX: Warning %f4 was declared previous at backprop-rodinia-3.1.sm_30.ptx:146 skipping new declaration
GPGPU-Sim PTX: Warning %f5 was declared previous at backprop-rodinia-3.1.sm_30.ptx:146 skipping new declaration
GPGPU-Sim PTX: Warning %f6 was declared previous at backprop-rodinia-3.1.sm_30.ptx:146 skipping new declaration
GPGPU-Sim PTX: Warning %f7 was declared previous at backprop-rodinia-3.1.sm_30.ptx:146 skipping new declaration
GPGPU-Sim PTX: Warning %f8 was declared previous at backprop-rodinia-3.1.sm_30.ptx:146 skipping new declaration
GPGPU-Sim PTX: Warning %f9 was declared previous at backprop-rodinia-3.1.sm_30.ptx:146 skipping new declaration
GPGPU-Sim PTX: Warning %f10 was declared previous at backprop-rodinia-3.1.sm_30.ptx:146 skipping new declaration
GPGPU-Sim PTX: Warning %f11 was declared previous at backprop-rodinia-3.1.sm_30.ptx:146 skipping new declaration
GPGPU-Sim PTX: Warning %f12 was declared previous at backprop-rodinia-3.1.sm_30.ptx:146 skipping new declaration
GPGPU-Sim PTX: Warning %f13 was declared previous at backprop-rodinia-3.1.sm_30.ptx:146 skipping new declaration
GPGPU-Sim PTX: Warning %f14 was declared previous at backprop-rodinia-3.1.sm_30.ptx:146 skipping new declaration
GPGPU-Sim PTX: Warning %f15 was declared previous at backprop-rodinia-3.1.sm_30.ptx:146 skipping new declaration
GPGPU-Sim PTX: Warning %f16 was declared previous at backprop-rodinia-3.1.sm_30.ptx:146 skipping new declaration
GPGPU-Sim PTX: Warning %r0 was declared previous at backprop-rodinia-3.1.sm_30.ptx:147 skipping new declaration
GPGPU-Sim PTX: Warning %r1 was declared previous at backprop-rodinia-3.1.sm_30.ptx:147 skipping new declaration
GPGPU-Sim PTX: Warning %r2 was declared previous at backprop-rodinia-3.1.sm_30.ptx:147 skipping new declaration
GPGPU-Sim PTX: Warning %r3 was declared previous at backprop-rodinia-3.1.sm_30.ptx:147 skipping new declaration
GPGPU-Sim PTX: Warning %r4 was declared previous at backprop-rodinia-3.1.sm_30.ptx:147 skipping new declaration
GPGPU-Sim PTX: Warning %r5 was declared previous at backprop-rodinia-3.1.sm_30.ptx:147 skipping new declaration
GPGPU-Sim PTX: Warning %r6 was declared previous at backprop-rodinia-3.1.sm_30.ptx:147 skipping new declaration
GPGPU-Sim PTX: Warning %r7 was declared previous at backprop-rodinia-3.1.sm_30.ptx:147 skipping new declaration
GPGPU-Sim PTX: Warning %r8 was declared previous at backprop-rodinia-3.1.sm_30.ptx:147 skipping new declaration
GPGPU-Sim PTX: Warning %r9 was declared previous at backprop-rodinia-3.1.sm_30.ptx:147 skipping new declaration
GPGPU-Sim PTX: Warning %r10 was declared previous at backprop-rodinia-3.1.sm_30.ptx:147 skipping new declaration
GPGPU-Sim PTX: Warning %r11 was declared previous at backprop-rodinia-3.1.sm_30.ptx:147 skipping new declaration
GPGPU-Sim PTX: Warning %fd0 was declared previous at backprop-rodinia-3.1.sm_30.ptx:148 skipping new declaration
GPGPU-Sim PTX: Warning %fd1 was declared previous at backprop-rodinia-3.1.sm_30.ptx:148 skipping new declaration
GPGPU-Sim PTX: Warning %fd2 was declared previous at backprop-rodinia-3.1.sm_30.ptx:148 skipping new declaration
GPGPU-Sim PTX: Warning %fd3 was declared previous at backprop-rodinia-3.1.sm_30.ptx:148 skipping new declaration
GPGPU-Sim PTX: Warning %fd4 was declared previous at backprop-rodinia-3.1.sm_30.ptx:148 skipping new declaration
GPGPU-Sim PTX: Warning %fd5 was declared previous at backprop-rodinia-3.1.sm_30.ptx:148 skipping new declaration
GPGPU-Sim PTX: Warning %fd6 was declared previous at backprop-rodinia-3.1.sm_30.ptx:148 skipping new declaration
GPGPU-Sim PTX: Warning %fd7 was declared previous at backprop-rodinia-3.1.sm_30.ptx:148 skipping new declaration
GPGPU-Sim PTX: Warning %fd8 was declared previous at backprop-rodinia-3.1.sm_30.ptx:148 skipping new declaration
GPGPU-Sim PTX: Warning %fd9 was declared previous at backprop-rodinia-3.1.sm_30.ptx:148 skipping new declaration
GPGPU-Sim PTX: Warning %fd10 was declared previous at backprop-rodinia-3.1.sm_30.ptx:148 skipping new declaration
GPGPU-Sim PTX: Warning %fd11 was declared previous at backprop-rodinia-3.1.sm_30.ptx:148 skipping new declaration
GPGPU-Sim PTX: Warning %fd12 was declared previous at backprop-rodinia-3.1.sm_30.ptx:148 skipping new declaration
GPGPU-Sim PTX: Warning %fd13 was declared previous at backprop-rodinia-3.1.sm_30.ptx:148 skipping new declaration
GPGPU-Sim PTX: Warning %fd14 was declared previous at backprop-rodinia-3.1.sm_30.ptx:148 skipping new declaration
GPGPU-Sim PTX: Warning %fd15 was declared previous at backprop-rodinia-3.1.sm_30.ptx:148 skipping new declaration
GPGPU-Sim PTX: Warning %fd16 was declared previous at backprop-rodinia-3.1.sm_30.ptx:148 skipping new declaration
GPGPU-Sim PTX: Warning %fd17 was declared previous at backprop-rodinia-3.1.sm_30.ptx:148 skipping new declaration
GPGPU-Sim PTX: Warning %fd18 was declared previous at backprop-rodinia-3.1.sm_30.ptx:148 skipping new declaration
GPGPU-Sim PTX: Warning %fd19 was declared previous at backprop-rodinia-3.1.sm_30.ptx:148 skipping new declaration
GPGPU-Sim PTX: Warning %fd20 was declared previous at backprop-rodinia-3.1.sm_30.ptx:148 skipping new declaration
GPGPU-Sim PTX: Warning %fd21 was declared previous at backprop-rodinia-3.1.sm_30.ptx:148 skipping new declaration
GPGPU-Sim PTX: Warning %fd22 was declared previous at backprop-rodinia-3.1.sm_30.ptx:148 skipping new declaration
GPGPU-Sim PTX: Warning %fd23 was declared previous at backprop-rodinia-3.1.sm_30.ptx:148 skipping new declaration
GPGPU-Sim PTX: Warning %fd24 was declared previous at backprop-rodinia-3.1.sm_30.ptx:148 skipping new declaration
GPGPU-Sim PTX: Warning %rd0 was declared previous at backprop-rodinia-3.1.sm_30.ptx:149 skipping new declaration
GPGPU-Sim PTX: Warning %rd1 was declared previous at backprop-rodinia-3.1.sm_30.ptx:149 skipping new declaration
GPGPU-Sim PTX: Warning %rd2 was declared previous at backprop-rodinia-3.1.sm_30.ptx:149 skipping new declaration
GPGPU-Sim PTX: Warning %rd3 was declared previous at backprop-rodinia-3.1.sm_30.ptx:149 skipping new declaration
GPGPU-Sim PTX: Warning %rd4 was declared previous at backprop-rodinia-3.1.sm_30.ptx:149 skipping new declaration
GPGPU-Sim PTX: Warning %rd5 was declared previous at backprop-rodinia-3.1.sm_30.ptx:149 skipping new declaration
GPGPU-Sim PTX: Warning %rd6 was declared previous at backprop-rodinia-3.1.sm_30.ptx:149 skipping new declaration
GPGPU-Sim PTX: Warning %rd7 was declared previous at backprop-rodinia-3.1.sm_30.ptx:149 skipping new declaration
GPGPU-Sim PTX: Warning %rd8 was declared previous at backprop-rodinia-3.1.sm_30.ptx:149 skipping new declaration
GPGPU-Sim PTX: Warning %rd9 was declared previous at backprop-rodinia-3.1.sm_30.ptx:149 skipping new declaration
GPGPU-Sim PTX: Warning %rd10 was declared previous at backprop-rodinia-3.1.sm_30.ptx:149 skipping new declaration
GPGPU-Sim PTX: Warning %rd11 was declared previous at backprop-rodinia-3.1.sm_30.ptx:149 skipping new declaration
GPGPU-Sim PTX: Warning %rd12 was declared previous at backprop-rodinia-3.1.sm_30.ptx:149 skipping new declaration
GPGPU-Sim PTX: Warning %rd13 was declared previous at backprop-rodinia-3.1.sm_30.ptx:149 skipping new declaration
GPGPU-Sim PTX: Warning %rd14 was declared previous at backprop-rodinia-3.1.sm_30.ptx:149 skipping new declaration
GPGPU-Sim PTX: Warning %rd15 was declared previous at backprop-rodinia-3.1.sm_30.ptx:149 skipping new declaration
GPGPU-Sim PTX: Warning %rd16 was declared previous at backprop-rodinia-3.1.sm_30.ptx:149 skipping new declaration
GPGPU-Sim PTX: Warning %rd17 was declared previous at backprop-rodinia-3.1.sm_30.ptx:149 skipping new declaration
GPGPU-Sim PTX: Warning %rd18 was declared previous at backprop-rodinia-3.1.sm_30.ptx:149 skipping new declaration
GPGPU-Sim PTX: instruction assembly for function '_Z24bpnn_adjust_weights_cudaPfiS_iS_S_'...   done.
GPGPU-Sim PTX: finished parsing EMBEDDED .ptx file backprop-rodinia-3.2.sm_35.ptx
GPGPU-Sim PTX: Parsing backprop-rodinia-3.3.sm_50.ptx
GPGPU-Sim PTX: Warning %p0 was declared previous at backprop-rodinia-3.1.sm_30.ptx:26 skipping new declaration
GPGPU-Sim PTX: Warning %p1 was declared previous at backprop-rodinia-3.1.sm_30.ptx:26 skipping new declaration
GPGPU-Sim PTX: Warning %p2 was declared previous at backprop-rodinia-3.1.sm_30.ptx:26 skipping new declaration
GPGPU-Sim PTX: Warning %p3 was declared previous at backprop-rodinia-3.1.sm_30.ptx:26 skipping new declaration
GPGPU-Sim PTX: Warning %p4 was declared previous at backprop-rodinia-3.1.sm_30.ptx:26 skipping new declaration
GPGPU-Sim PTX: Warning %p5 was declared previous at backprop-rodinia-3.1.sm_30.ptx:26 skipping new declaration
GPGPU-Sim PTX: Warning %f0 was declared previous at backprop-rodinia-3.1.sm_30.ptx:27 skipping new declaration
GPGPU-Sim PTX: Warning %f1 was declared previous at backprop-rodinia-3.1.sm_30.ptx:27 skipping new declaration
GPGPU-Sim PTX: Warning %f2 was declared previous at backprop-rodinia-3.1.sm_30.ptx:27 skipping new declaration
GPGPU-Sim PTX: Warning %f3 was declared previous at backprop-rodinia-3.1.sm_30.ptx:27 skipping new declaration
GPGPU-Sim PTX: Warning %f4 was declared previous at backprop-rodinia-3.1.sm_30.ptx:27 skipping new declaration
GPGPU-Sim PTX: Warning %f5 was declared previous at backprop-rodinia-3.1.sm_30.ptx:27 skipping new declaration
GPGPU-Sim PTX: Warning %f6 was declared previous at backprop-rodinia-3.1.sm_30.ptx:27 skipping new declaration
GPGPU-Sim PTX: Warning %f7 was declared previous at backprop-rodinia-3.1.sm_30.ptx:27 skipping new declaration
GPGPU-Sim PTX: Warning %f8 was declared previous at backprop-rodinia-3.1.sm_30.ptx:27 skipping new declaration
GPGPU-Sim PTX: Warning %f9 was declared previous at backprop-rodinia-3.1.sm_30.ptx:27 skipping new declaration
GPGPU-Sim PTX: Warning %f10 was declared previous at backprop-rodinia-3.1.sm_30.ptx:27 skipping new declaration
GPGPU-Sim PTX: Warning %f11 was declared previous at backprop-rodinia-3.1.sm_30.ptx:27 skipping new declaration
GPGPU-Sim PTX: Warning %f12 was declared previous at backprop-rodinia-3.1.sm_30.ptx:27 skipping new declaration
GPGPU-Sim PTX: Warning %f13 was declared previous at backprop-rodinia-3.1.sm_30.ptx:27 skipping new declaration
GPGPU-Sim PTX: Warning %f14 was declared previous at backprop-rodinia-3.1.sm_30.ptx:27 skipping new declaration
GPGPU-Sim PTX: Warning %f15 was declared previous at backprop-rodinia-3.1.sm_30.ptx:27 skipping new declaration
GPGPU-Sim PTX: Warning %f16 was declared previous at backprop-rodinia-3.1.sm_30.ptx:27 skipping new declaration
GPGPU-Sim PTX: Warning %f17 was declared previous at backprop-rodinia-3.1.sm_30.ptx:27 skipping new declaration
GPGPU-Sim PTX: Warning %f18 was declared previous at backprop-rodinia-3.1.sm_30.ptx:27 skipping new declaration
GPGPU-Sim PTX: Warning %f19 was declared previous at backprop-rodinia-3.1.sm_30.ptx:27 skipping new declaration
GPGPU-Sim PTX: Warning %f20 was declared previous at backprop-rodinia-3.1.sm_30.ptx:27 skipping new declaration
GPGPU-Sim PTX: Warning %r0 was declared previous at backprop-rodinia-3.1.sm_30.ptx:28 skipping new declaration
GPGPU-Sim PTX: Warning %r1 was declared previous at backprop-rodinia-3.1.sm_30.ptx:28 skipping new declaration
GPGPU-Sim PTX: Warning %r2 was declared previous at backprop-rodinia-3.1.sm_30.ptx:28 skipping new declaration
GPGPU-Sim PTX: Warning %r3 was declared previous at backprop-rodinia-3.1.sm_30.ptx:28 skipping new declaration
GPGPU-Sim PTX: Warning %r4 was declared previous at backprop-rodinia-3.1.sm_30.ptx:28 skipping new declaration
GPGPU-Sim PTX: Warning %r5 was declared previous at backprop-rodinia-3.1.sm_30.ptx:28 skipping new declaration
GPGPU-Sim PTX: Warning %r6 was declared previous at backprop-rodinia-3.1.sm_30.ptx:28 skipping new declaration
GPGPU-Sim PTX: Warning %r7 was declared previous at backprop-rodinia-3.1.sm_30.ptx:28 skipping new declaration
GPGPU-Sim PTX: Warning %r8 was declared previous at backprop-rodinia-3.1.sm_30.ptx:28 skipping new declaration
GPGPU-Sim PTX: Warning %r9 was declared previous at backprop-rodinia-3.1.sm_30.ptx:28 skipping new declaration
GPGPU-Sim PTX: Warning %r10 was declared previous at backprop-rodinia-3.1.sm_30.ptx:28 skipping new declaration
GPGPU-Sim PTX: Warning %r11 was declared previous at backprop-rodinia-3.1.sm_30.ptx:28 skipping new declaration
GPGPU-Sim PTX: Warning %r12 was declared previous at backprop-rodinia-3.1.sm_30.ptx:28 skipping new declaration
GPGPU-Sim PTX: Warning %r13 was declared previous at backprop-rodinia-3.1.sm_30.ptx:28 skipping new declaration
GPGPU-Sim PTX: Warning %r14 was declared previous at backprop-rodinia-3.1.sm_30.ptx:28 skipping new declaration
GPGPU-Sim PTX: Warning %r15 was declared previous at backprop-rodinia-3.1.sm_30.ptx:28 skipping new declaration
GPGPU-Sim PTX: Warning %r16 was declared previous at backprop-rodinia-3.1.sm_30.ptx:28 skipping new declaration
GPGPU-Sim PTX: Warning %r17 was declared previous at backprop-rodinia-3.1.sm_30.ptx:28 skipping new declaration
GPGPU-Sim PTX: Warning %r18 was declared previous at backprop-rodinia-3.1.sm_30.ptx:28 skipping new declaration
GPGPU-Sim PTX: Warning %r19 was declared previous at backprop-rodinia-3.1.sm_30.ptx:28 skipping new declaration
GPGPU-Sim PTX: Warning %r20 was declared previous at backprop-rodinia-3.1.sm_30.ptx:28 skipping new declaration
GPGPU-Sim PTX: Warning %r21 was declared previous at backprop-rodinia-3.1.sm_30.ptx:28 skipping new declaration
GPGPU-Sim PTX: Warning %r22 was declared previous at backprop-rodinia-3.1.sm_30.ptx:28 skipping new declaration
GPGPU-Sim PTX: Warning %r23 was declared previous at backprop-rodinia-3.1.sm_30.ptx:28 skipping new declaration
GPGPU-Sim PTX: Warning %r24 was declared previous at backprop-rodinia-3.1.sm_30.ptx:28 skipping new declaration
GPGPU-Sim PTX: Warning %r25 was declared previous at backprop-rodinia-3.1.sm_30.ptx:28 skipping new declaration
GPGPU-Sim PTX: Warning %r26 was declared previous at backprop-rodinia-3.1.sm_30.ptx:28 skipping new declaration
GPGPU-Sim PTX: Warning %r27 was declared previous at backprop-rodinia-3.1.sm_30.ptx:28 skipping new declaration
GPGPU-Sim PTX: Warning %r28 was declared previous at backprop-rodinia-3.1.sm_30.ptx:28 skipping new declaration
GPGPU-Sim PTX: Warning %r29 was declared previous at backprop-rodinia-3.1.sm_30.ptx:28 skipping new declaration
GPGPU-Sim PTX: Warning %r30 was declared previous at backprop-rodinia-3.1.sm_30.ptx:28 skipping new declaration
GPGPU-Sim PTX: Warning %r31 was declared previous at backprop-rodinia-3.1.sm_30.ptx:28 skipping new declaration
GPGPU-Sim PTX: Warning %r32 was declared previous at backprop-rodinia-3.1.sm_30.ptx:28 skipping new declaration
GPGPU-Sim PTX: Warning %r33 was declared previous at backprop-rodinia-3.1.sm_30.ptx:28 skipping new declaration
GPGPU-Sim PTX: Warning %r34 was declared previous at backprop-rodinia-3.1.sm_30.ptx:28 skipping new declaration
GPGPU-Sim PTX: Warning %r35 was declared previous at backprop-rodinia-3.1.sm_30.ptx:28 skipping new declaration
GPGPU-Sim PTX: Warning %r36 was declared previous at backprop-rodinia-3.1.sm_30.ptx:28 skipping new declaration
GPGPU-Sim PTX: Warning %rd0 was declared previous at backprop-rodinia-3.1.sm_30.ptx:29 skipping new declaration
GPGPU-Sim PTX: Warning %rd1 was declared previous at backprop-rodinia-3.1.sm_30.ptx:29 skipping new declaration
GPGPU-Sim PTX: Warning %rd2 was declared previous at backprop-rodinia-3.1.sm_30.ptx:29 skipping new declaration
GPGPU-Sim PTX: Warning %rd3 was declared previous at backprop-rodinia-3.1.sm_30.ptx:29 skipping new declaration
GPGPU-Sim PTX: Warning %rd4 was declared previous at backprop-rodinia-3.1.sm_30.ptx:29 skipping new declaration
GPGPU-Sim PTX: Warning %rd5 was declared previous at backprop-rodinia-3.1.sm_30.ptx:29 skipping new declaration
GPGPU-Sim PTX: Warning %rd6 was declared previous at backprop-rodinia-3.1.sm_30.ptx:29 skipping new declaration
GPGPU-Sim PTX: Warning %rd7 was declared previous at backprop-rodinia-3.1.sm_30.ptx:29 skipping new declaration
GPGPU-Sim PTX: Warning %rd8 was declared previous at backprop-rodinia-3.1.sm_30.ptx:29 skipping new declaration
GPGPU-Sim PTX: Warning %rd9 was declared previous at backprop-rodinia-3.1.sm_30.ptx:29 skipping new declaration
GPGPU-Sim PTX: Warning %rd10 was declared previous at backprop-rodinia-3.1.sm_30.ptx:29 skipping new declaration
GPGPU-Sim PTX: Warning %rd11 was declared previous at backprop-rodinia-3.1.sm_30.ptx:29 skipping new declaration
GPGPU-Sim PTX: Warning %rd12 was declared previous at backprop-rodinia-3.1.sm_30.ptx:29 skipping new declaration
GPGPU-Sim PTX: Warning _Z22bpnn_layerforward_CUDAPfS_S_S_ii$__cuda_local_var_16773_34_non_const_input_node was declared previous at backprop-rodinia-3.2.sm_35.ptx:31 skipping new declaration
GPGPU-Sim PTX: Warning _Z22bpnn_layerforward_CUDAPfS_S_S_ii$__cuda_local_var_16774_34_non_const_weight_matrix was declared previous at backprop-rodinia-3.2.sm_35.ptx:33 skipping new declaration
GPGPU-Sim PTX: instruction assembly for function '_Z22bpnn_layerforward_CUDAPfS_S_S_ii'...   done.
GPGPU-Sim PTX: Warning %p0 was declared previous at backprop-rodinia-3.1.sm_30.ptx:145 skipping new declaration
GPGPU-Sim PTX: Warning %p1 was declared previous at backprop-rodinia-3.1.sm_30.ptx:145 skipping new declaration
GPGPU-Sim PTX: Warning %f0 was declared previous at backprop-rodinia-3.1.sm_30.ptx:146 skipping new declaration
GPGPU-Sim PTX: Warning %f1 was declared previous at backprop-rodinia-3.1.sm_30.ptx:146 skipping new declaration
GPGPU-Sim PTX: Warning %f2 was declared previous at backprop-rodinia-3.1.sm_30.ptx:146 skipping new declaration
GPGPU-Sim PTX: Warning %f3 was declared previous at backprop-rodinia-3.1.sm_30.ptx:146 skipping new declaration
GPGPU-Sim PTX: Warning %f4 was declared previous at backprop-rodinia-3.1.sm_30.ptx:146 skipping new declaration
GPGPU-Sim PTX: Warning %f5 was declared previous at backprop-rodinia-3.1.sm_30.ptx:146 skipping new declaration
GPGPU-Sim PTX: Warning %f6 was declared previous at backprop-rodinia-3.1.sm_30.ptx:146 skipping new declaration
GPGPU-Sim PTX: Warning %f7 was declared previous at backprop-rodinia-3.1.sm_30.ptx:146 skipping new declaration
GPGPU-Sim PTX: Warning %f8 was declared previous at backprop-rodinia-3.1.sm_30.ptx:146 skipping new declaration
GPGPU-Sim PTX: Warning %f9 was declared previous at backprop-rodinia-3.1.sm_30.ptx:146 skipping new declaration
GPGPU-Sim PTX: Warning %f10 was declared previous at backprop-rodinia-3.1.sm_30.ptx:146 skipping new declaration
GPGPU-Sim PTX: Warning %f11 was declared previous at backprop-rodinia-3.1.sm_30.ptx:146 skipping new declaration
GPGPU-Sim PTX: Warning %f12 was declared previous at backprop-rodinia-3.1.sm_30.ptx:146 skipping new declaration
GPGPU-Sim PTX: Warning %f13 was declared previous at backprop-rodinia-3.1.sm_30.ptx:146 skipping new declaration
GPGPU-Sim PTX: Warning %f14 was declared previous at backprop-rodinia-3.1.sm_30.ptx:146 skipping new declaration
GPGPU-Sim PTX: Warning %f15 was declared previous at backprop-rodinia-3.1.sm_30.ptx:146 skipping new declaration
GPGPU-Sim PTX: Warning %f16 was declared previous at backprop-rodinia-3.1.sm_30.ptx:146 skipping new declaration
GPGPU-Sim PTX: Warning %r0 was declared previous at backprop-rodinia-3.1.sm_30.ptx:147 skipping new declaration
GPGPU-Sim PTX: Warning %r1 was declared previous at backprop-rodinia-3.1.sm_30.ptx:147 skipping new declaration
GPGPU-Sim PTX: Warning %r2 was declared previous at backprop-rodinia-3.1.sm_30.ptx:147 skipping new declaration
GPGPU-Sim PTX: Warning %r3 was declared previous at backprop-rodinia-3.1.sm_30.ptx:147 skipping new declaration
GPGPU-Sim PTX: Warning %r4 was declared previous at backprop-rodinia-3.1.sm_30.ptx:147 skipping new declaration
GPGPU-Sim PTX: Warning %r5 was declared previous at backprop-rodinia-3.1.sm_30.ptx:147 skipping new declaration
GPGPU-Sim PTX: Warning %r6 was declared previous at backprop-rodinia-3.1.sm_30.ptx:147 skipping new declaration
GPGPU-Sim PTX: Warning %r7 was declared previous at backprop-rodinia-3.1.sm_30.ptx:147 skipping new declaration
GPGPU-Sim PTX: Warning %r8 was declared previous at backprop-rodinia-3.1.sm_30.ptx:147 skipping new declaration
GPGPU-Sim PTX: Warning %r9 was declared previous at backprop-rodinia-3.1.sm_30.ptx:147 skipping new declaration
GPGPU-Sim PTX: Warning %r10 was declared previous at backprop-rodinia-3.1.sm_30.ptx:147 skipping new declaration
GPGPU-Sim PTX: Warning %r11 was declared previous at backprop-rodinia-3.1.sm_30.ptx:147 skipping new declaration
GPGPU-Sim PTX: Warning %fd0 was declared previous at backprop-rodinia-3.1.sm_30.ptx:148 skipping new declaration
GPGPU-Sim PTX: Warning %fd1 was declared previous at backprop-rodinia-3.1.sm_30.ptx:148 skipping new declaration
GPGPU-Sim PTX: Warning %fd2 was declared previous at backprop-rodinia-3.1.sm_30.ptx:148 skipping new declaration
GPGPU-Sim PTX: Warning %fd3 was declared previous at backprop-rodinia-3.1.sm_30.ptx:148 skipping new declaration
GPGPU-Sim PTX: Warning %fd4 was declared previous at backprop-rodinia-3.1.sm_30.ptx:148 skipping new declaration
GPGPU-Sim PTX: Warning %fd5 was declared previous at backprop-rodinia-3.1.sm_30.ptx:148 skipping new declaration
GPGPU-Sim PTX: Warning %fd6 was declared previous at backprop-rodinia-3.1.sm_30.ptx:148 skipping new declaration
GPGPU-Sim PTX: Warning %fd7 was declared previous at backprop-rodinia-3.1.sm_30.ptx:148 skipping new declaration
GPGPU-Sim PTX: Warning %fd8 was declared previous at backprop-rodinia-3.1.sm_30.ptx:148 skipping new declaration
GPGPU-Sim PTX: Warning %fd9 was declared previous at backprop-rodinia-3.1.sm_30.ptx:148 skipping new declaration
GPGPU-Sim PTX: Warning %fd10 was declared previous at backprop-rodinia-3.1.sm_30.ptx:148 skipping new declaration
GPGPU-Sim PTX: Warning %fd11 was declared previous at backprop-rodinia-3.1.sm_30.ptx:148 skipping new declaration
GPGPU-Sim PTX: Warning %fd12 was declared previous at backprop-rodinia-3.1.sm_30.ptx:148 skipping new declaration
GPGPU-Sim PTX: Warning %fd13 was declared previous at backprop-rodinia-3.1.sm_30.ptx:148 skipping new declaration
GPGPU-Sim PTX: Warning %fd14 was declared previous at backprop-rodinia-3.1.sm_30.ptx:148 skipping new declaration
GPGPU-Sim PTX: Warning %fd15 was declared previous at backprop-rodinia-3.1.sm_30.ptx:148 skipping new declaration
GPGPU-Sim PTX: Warning %fd16 was declared previous at backprop-rodinia-3.1.sm_30.ptx:148 skipping new declaration
GPGPU-Sim PTX: Warning %fd17 was declared previous at backprop-rodinia-3.1.sm_30.ptx:148 skipping new declaration
GPGPU-Sim PTX: Warning %fd18 was declared previous at backprop-rodinia-3.1.sm_30.ptx:148 skipping new declaration
GPGPU-Sim PTX: Warning %fd19 was declared previous at backprop-rodinia-3.1.sm_30.ptx:148 skipping new declaration
GPGPU-Sim PTX: Warning %fd20 was declared previous at backprop-rodinia-3.1.sm_30.ptx:148 skipping new declaration
GPGPU-Sim PTX: Warning %fd21 was declared previous at backprop-rodinia-3.1.sm_30.ptx:148 skipping new declaration
GPGPU-Sim PTX: Warning %fd22 was declared previous at backprop-rodinia-3.1.sm_30.ptx:148 skipping new declaration
GPGPU-Sim PTX: Warning %fd23 was declared previous at backprop-rodinia-3.1.sm_30.ptx:148 skipping new declaration
GPGPU-Sim PTX: Warning %fd24 was declared previous at backprop-rodinia-3.1.sm_30.ptx:148 skipping new declaration
GPGPU-Sim PTX: Warning %rd0 was declared previous at backprop-rodinia-3.1.sm_30.ptx:149 skipping new declaration
GPGPU-Sim PTX: Warning %rd1 was declared previous at backprop-rodinia-3.1.sm_30.ptx:149 skipping new declaration
GPGPU-Sim PTX: Warning %rd2 was declared previous at backprop-rodinia-3.1.sm_30.ptx:149 skipping new declaration
GPGPU-Sim PTX: Warning %rd3 was declared previous at backprop-rodinia-3.1.sm_30.ptx:149 skipping new declaration
GPGPU-Sim PTX: Warning %rd4 was declared previous at backprop-rodinia-3.1.sm_30.ptx:149 skipping new declaration
GPGPU-Sim PTX: Warning %rd5 was declared previous at backprop-rodinia-3.1.sm_30.ptx:149 skipping new declaration
GPGPU-Sim PTX: Warning %rd6 was declared previous at backprop-rodinia-3.1.sm_30.ptx:149 skipping new declaration
GPGPU-Sim PTX: Warning %rd7 was declared previous at backprop-rodinia-3.1.sm_30.ptx:149 skipping new declaration
GPGPU-Sim PTX: Warning %rd8 was declared previous at backprop-rodinia-3.1.sm_30.ptx:149 skipping new declaration
GPGPU-Sim PTX: Warning %rd9 was declared previous at backprop-rodinia-3.1.sm_30.ptx:149 skipping new declaration
GPGPU-Sim PTX: Warning %rd10 was declared previous at backprop-rodinia-3.1.sm_30.ptx:149 skipping new declaration
GPGPU-Sim PTX: Warning %rd11 was declared previous at backprop-rodinia-3.1.sm_30.ptx:149 skipping new declaration
GPGPU-Sim PTX: Warning %rd12 was declared previous at backprop-rodinia-3.1.sm_30.ptx:149 skipping new declaration
GPGPU-Sim PTX: Warning %rd13 was declared previous at backprop-rodinia-3.1.sm_30.ptx:149 skipping new declaration
GPGPU-Sim PTX: Warning %rd14 was declared previous at backprop-rodinia-3.1.sm_30.ptx:149 skipping new declaration
GPGPU-Sim PTX: Warning %rd15 was declared previous at backprop-rodinia-3.1.sm_30.ptx:149 skipping new declaration
GPGPU-Sim PTX: Warning %rd16 was declared previous at backprop-rodinia-3.1.sm_30.ptx:149 skipping new declaration
GPGPU-Sim PTX: Warning %rd17 was declared previous at backprop-rodinia-3.1.sm_30.ptx:149 skipping new declaration
GPGPU-Sim PTX: Warning %rd18 was declared previous at backprop-rodinia-3.1.sm_30.ptx:149 skipping new declaration
GPGPU-Sim PTX: instruction assembly for function '_Z24bpnn_adjust_weights_cudaPfiS_iS_S_'...   done.
GPGPU-Sim PTX: finished parsing EMBEDDED .ptx file backprop-rodinia-3.3.sm_50.ptx
GPGPU-Sim PTX: Parsing backprop-rodinia-3.4.sm_60.ptx
GPGPU-Sim PTX: Warning %p0 was declared previous at backprop-rodinia-3.1.sm_30.ptx:26 skipping new declaration
GPGPU-Sim PTX: Warning %p1 was declared previous at backprop-rodinia-3.1.sm_30.ptx:26 skipping new declaration
GPGPU-Sim PTX: Warning %p2 was declared previous at backprop-rodinia-3.1.sm_30.ptx:26 skipping new declaration
GPGPU-Sim PTX: Warning %p3 was declared previous at backprop-rodinia-3.1.sm_30.ptx:26 skipping new declaration
GPGPU-Sim PTX: Warning %p4 was declared previous at backprop-rodinia-3.1.sm_30.ptx:26 skipping new declaration
GPGPU-Sim PTX: Warning %p5 was declared previous at backprop-rodinia-3.1.sm_30.ptx:26 skipping new declaration
GPGPU-Sim PTX: Warning %f0 was declared previous at backprop-rodinia-3.1.sm_30.ptx:27 skipping new declaration
GPGPU-Sim PTX: Warning %f1 was declared previous at backprop-rodinia-3.1.sm_30.ptx:27 skipping new declaration
GPGPU-Sim PTX: Warning %f2 was declared previous at backprop-rodinia-3.1.sm_30.ptx:27 skipping new declaration
GPGPU-Sim PTX: Warning %f3 was declared previous at backprop-rodinia-3.1.sm_30.ptx:27 skipping new declaration
GPGPU-Sim PTX: Warning %f4 was declared previous at backprop-rodinia-3.1.sm_30.ptx:27 skipping new declaration
GPGPU-Sim PTX: Warning %f5 was declared previous at backprop-rodinia-3.1.sm_30.ptx:27 skipping new declaration
GPGPU-Sim PTX: Warning %f6 was declared previous at backprop-rodinia-3.1.sm_30.ptx:27 skipping new declaration
GPGPU-Sim PTX: Warning %f7 was declared previous at backprop-rodinia-3.1.sm_30.ptx:27 skipping new declaration
GPGPU-Sim PTX: Warning %f8 was declared previous at backprop-rodinia-3.1.sm_30.ptx:27 skipping new declaration
GPGPU-Sim PTX: Warning %f9 was declared previous at backprop-rodinia-3.1.sm_30.ptx:27 skipping new declaration
GPGPU-Sim PTX: Warning %f10 was declared previous at backprop-rodinia-3.1.sm_30.ptx:27 skipping new declaration
GPGPU-Sim PTX: Warning %f11 was declared previous at backprop-rodinia-3.1.sm_30.ptx:27 skipping new declaration
GPGPU-Sim PTX: Warning %f12 was declared previous at backprop-rodinia-3.1.sm_30.ptx:27 skipping new declaration
GPGPU-Sim PTX: Warning %f13 was declared previous at backprop-rodinia-3.1.sm_30.ptx:27 skipping new declaration
GPGPU-Sim PTX: Warning %f14 was declared previous at backprop-rodinia-3.1.sm_30.ptx:27 skipping new declaration
GPGPU-Sim PTX: Warning %f15 was declared previous at backprop-rodinia-3.1.sm_30.ptx:27 skipping new declaration
GPGPU-Sim PTX: Warning %f16 was declared previous at backprop-rodinia-3.1.sm_30.ptx:27 skipping new declaration
GPGPU-Sim PTX: Warning %f17 was declared previous at backprop-rodinia-3.1.sm_30.ptx:27 skipping new declaration
GPGPU-Sim PTX: Warning %f18 was declared previous at backprop-rodinia-3.1.sm_30.ptx:27 skipping new declaration
GPGPU-Sim PTX: Warning %f19 was declared previous at backprop-rodinia-3.1.sm_30.ptx:27 skipping new declaration
GPGPU-Sim PTX: Warning %f20 was declared previous at backprop-rodinia-3.1.sm_30.ptx:27 skipping new declaration
GPGPU-Sim PTX: Warning %r0 was declared previous at backprop-rodinia-3.1.sm_30.ptx:28 skipping new declaration
GPGPU-Sim PTX: Warning %r1 was declared previous at backprop-rodinia-3.1.sm_30.ptx:28 skipping new declaration
GPGPU-Sim PTX: Warning %r2 was declared previous at backprop-rodinia-3.1.sm_30.ptx:28 skipping new declaration
GPGPU-Sim PTX: Warning %r3 was declared previous at backprop-rodinia-3.1.sm_30.ptx:28 skipping new declaration
GPGPU-Sim PTX: Warning %r4 was declared previous at backprop-rodinia-3.1.sm_30.ptx:28 skipping new declaration
GPGPU-Sim PTX: Warning %r5 was declared previous at backprop-rodinia-3.1.sm_30.ptx:28 skipping new declaration
GPGPU-Sim PTX: Warning %r6 was declared previous at backprop-rodinia-3.1.sm_30.ptx:28 skipping new declaration
GPGPU-Sim PTX: Warning %r7 was declared previous at backprop-rodinia-3.1.sm_30.ptx:28 skipping new declaration
GPGPU-Sim PTX: Warning %r8 was declared previous at backprop-rodinia-3.1.sm_30.ptx:28 skipping new declaration
GPGPU-Sim PTX: Warning %r9 was declared previous at backprop-rodinia-3.1.sm_30.ptx:28 skipping new declaration
GPGPU-Sim PTX: Warning %r10 was declared previous at backprop-rodinia-3.1.sm_30.ptx:28 skipping new declaration
GPGPU-Sim PTX: Warning %r11 was declared previous at backprop-rodinia-3.1.sm_30.ptx:28 skipping new declaration
GPGPU-Sim PTX: Warning %r12 was declared previous at backprop-rodinia-3.1.sm_30.ptx:28 skipping new declaration
GPGPU-Sim PTX: Warning %r13 was declared previous at backprop-rodinia-3.1.sm_30.ptx:28 skipping new declaration
GPGPU-Sim PTX: Warning %r14 was declared previous at backprop-rodinia-3.1.sm_30.ptx:28 skipping new declaration
GPGPU-Sim PTX: Warning %r15 was declared previous at backprop-rodinia-3.1.sm_30.ptx:28 skipping new declaration
GPGPU-Sim PTX: Warning %r16 was declared previous at backprop-rodinia-3.1.sm_30.ptx:28 skipping new declaration
GPGPU-Sim PTX: Warning %r17 was declared previous at backprop-rodinia-3.1.sm_30.ptx:28 skipping new declaration
GPGPU-Sim PTX: Warning %r18 was declared previous at backprop-rodinia-3.1.sm_30.ptx:28 skipping new declaration
GPGPU-Sim PTX: Warning %r19 was declared previous at backprop-rodinia-3.1.sm_30.ptx:28 skipping new declaration
GPGPU-Sim PTX: Warning %r20 was declared previous at backprop-rodinia-3.1.sm_30.ptx:28 skipping new declaration
GPGPU-Sim PTX: Warning %r21 was declared previous at backprop-rodinia-3.1.sm_30.ptx:28 skipping new declaration
GPGPU-Sim PTX: Warning %r22 was declared previous at backprop-rodinia-3.1.sm_30.ptx:28 skipping new declaration
GPGPU-Sim PTX: Warning %r23 was declared previous at backprop-rodinia-3.1.sm_30.ptx:28 skipping new declaration
GPGPU-Sim PTX: Warning %r24 was declared previous at backprop-rodinia-3.1.sm_30.ptx:28 skipping new declaration
GPGPU-Sim PTX: Warning %r25 was declared previous at backprop-rodinia-3.1.sm_30.ptx:28 skipping new declaration
GPGPU-Sim PTX: Warning %r26 was declared previous at backprop-rodinia-3.1.sm_30.ptx:28 skipping new declaration
GPGPU-Sim PTX: Warning %r27 was declared previous at backprop-rodinia-3.1.sm_30.ptx:28 skipping new declaration
GPGPU-Sim PTX: Warning %r28 was declared previous at backprop-rodinia-3.1.sm_30.ptx:28 skipping new declaration
GPGPU-Sim PTX: Warning %r29 was declared previous at backprop-rodinia-3.1.sm_30.ptx:28 skipping new declaration
GPGPU-Sim PTX: Warning %r30 was declared previous at backprop-rodinia-3.1.sm_30.ptx:28 skipping new declaration
GPGPU-Sim PTX: Warning %r31 was declared previous at backprop-rodinia-3.1.sm_30.ptx:28 skipping new declaration
GPGPU-Sim PTX: Warning %r32 was declared previous at backprop-rodinia-3.1.sm_30.ptx:28 skipping new declaration
GPGPU-Sim PTX: Warning %r33 was declared previous at backprop-rodinia-3.1.sm_30.ptx:28 skipping new declaration
GPGPU-Sim PTX: Warning %r34 was declared previous at backprop-rodinia-3.1.sm_30.ptx:28 skipping new declaration
GPGPU-Sim PTX: Warning %r35 was declared previous at backprop-rodinia-3.1.sm_30.ptx:28 skipping new declaration
GPGPU-Sim PTX: Warning %r36 was declared previous at backprop-rodinia-3.1.sm_30.ptx:28 skipping new declaration
GPGPU-Sim PTX: Warning %rd0 was declared previous at backprop-rodinia-3.1.sm_30.ptx:29 skipping new declaration
GPGPU-Sim PTX: Warning %rd1 was declared previous at backprop-rodinia-3.1.sm_30.ptx:29 skipping new declaration
GPGPU-Sim PTX: Warning %rd2 was declared previous at backprop-rodinia-3.1.sm_30.ptx:29 skipping new declaration
GPGPU-Sim PTX: Warning %rd3 was declared previous at backprop-rodinia-3.1.sm_30.ptx:29 skipping new declaration
GPGPU-Sim PTX: Warning %rd4 was declared previous at backprop-rodinia-3.1.sm_30.ptx:29 skipping new declaration
GPGPU-Sim PTX: Warning %rd5 was declared previous at backprop-rodinia-3.1.sm_30.ptx:29 skipping new declaration
GPGPU-Sim PTX: Warning %rd6 was declared previous at backprop-rodinia-3.1.sm_30.ptx:29 skipping new declaration
GPGPU-Sim PTX: Warning %rd7 was declared previous at backprop-rodinia-3.1.sm_30.ptx:29 skipping new declaration
GPGPU-Sim PTX: Warning %rd8 was declared previous at backprop-rodinia-3.1.sm_30.ptx:29 skipping new declaration
GPGPU-Sim PTX: Warning %rd9 was declared previous at backprop-rodinia-3.1.sm_30.ptx:29 skipping new declaration
GPGPU-Sim PTX: Warning %rd10 was declared previous at backprop-rodinia-3.1.sm_30.ptx:29 skipping new declaration
GPGPU-Sim PTX: Warning %rd11 was declared previous at backprop-rodinia-3.1.sm_30.ptx:29 skipping new declaration
GPGPU-Sim PTX: Warning %rd12 was declared previous at backprop-rodinia-3.1.sm_30.ptx:29 skipping new declaration
GPGPU-Sim PTX: allocating shared region for "_Z22bpnn_layerforward_CUDAPfS_S_S_ii$__cuda_local_var_17671_34_non_const_input_node" from 0x900 to 0x940 (shared memory space)
GPGPU-Sim PTX: allocating shared region for "_Z22bpnn_layerforward_CUDAPfS_S_S_ii$__cuda_local_var_17672_34_non_const_weight_matrix" from 0x980 to 0xd80 (shared memory space)
GPGPU-Sim PTX: instruction assembly for function '_Z22bpnn_layerforward_CUDAPfS_S_S_ii'...   done.
GPGPU-Sim PTX: Warning %p0 was declared previous at backprop-rodinia-3.1.sm_30.ptx:145 skipping new declaration
GPGPU-Sim PTX: Warning %p1 was declared previous at backprop-rodinia-3.1.sm_30.ptx:145 skipping new declaration
GPGPU-Sim PTX: Warning %f0 was declared previous at backprop-rodinia-3.1.sm_30.ptx:146 skipping new declaration
GPGPU-Sim PTX: Warning %f1 was declared previous at backprop-rodinia-3.1.sm_30.ptx:146 skipping new declaration
GPGPU-Sim PTX: Warning %f2 was declared previous at backprop-rodinia-3.1.sm_30.ptx:146 skipping new declaration
GPGPU-Sim PTX: Warning %f3 was declared previous at backprop-rodinia-3.1.sm_30.ptx:146 skipping new declaration
GPGPU-Sim PTX: Warning %f4 was declared previous at backprop-rodinia-3.1.sm_30.ptx:146 skipping new declaration
GPGPU-Sim PTX: Warning %f5 was declared previous at backprop-rodinia-3.1.sm_30.ptx:146 skipping new declaration
GPGPU-Sim PTX: Warning %f6 was declared previous at backprop-rodinia-3.1.sm_30.ptx:146 skipping new declaration
GPGPU-Sim PTX: Warning %f7 was declared previous at backprop-rodinia-3.1.sm_30.ptx:146 skipping new declaration
GPGPU-Sim PTX: Warning %f8 was declared previous at backprop-rodinia-3.1.sm_30.ptx:146 skipping new declaration
GPGPU-Sim PTX: Warning %f9 was declared previous at backprop-rodinia-3.1.sm_30.ptx:146 skipping new declaration
GPGPU-Sim PTX: Warning %f10 was declared previous at backprop-rodinia-3.1.sm_30.ptx:146 skipping new declaration
GPGPU-Sim PTX: Warning %f11 was declared previous at backprop-rodinia-3.1.sm_30.ptx:146 skipping new declaration
GPGPU-Sim PTX: Warning %f12 was declared previous at backprop-rodinia-3.1.sm_30.ptx:146 skipping new declaration
GPGPU-Sim PTX: Warning %f13 was declared previous at backprop-rodinia-3.1.sm_30.ptx:146 skipping new declaration
GPGPU-Sim PTX: Warning %f14 was declared previous at backprop-rodinia-3.1.sm_30.ptx:146 skipping new declaration
GPGPU-Sim PTX: Warning %f15 was declared previous at backprop-rodinia-3.1.sm_30.ptx:146 skipping new declaration
GPGPU-Sim PTX: Warning %f16 was declared previous at backprop-rodinia-3.1.sm_30.ptx:146 skipping new declaration
GPGPU-Sim PTX: Warning %r0 was declared previous at backprop-rodinia-3.1.sm_30.ptx:147 skipping new declaration
GPGPU-Sim PTX: Warning %r1 was declared previous at backprop-rodinia-3.1.sm_30.ptx:147 skipping new declaration
GPGPU-Sim PTX: Warning %r2 was declared previous at backprop-rodinia-3.1.sm_30.ptx:147 skipping new declaration
GPGPU-Sim PTX: Warning %r3 was declared previous at backprop-rodinia-3.1.sm_30.ptx:147 skipping new declaration
GPGPU-Sim PTX: Warning %r4 was declared previous at backprop-rodinia-3.1.sm_30.ptx:147 skipping new declaration
GPGPU-Sim PTX: Warning %r5 was declared previous at backprop-rodinia-3.1.sm_30.ptx:147 skipping new declaration
GPGPU-Sim PTX: Warning %r6 was declared previous at backprop-rodinia-3.1.sm_30.ptx:147 skipping new declaration
GPGPU-Sim PTX: Warning %r7 was declared previous at backprop-rodinia-3.1.sm_30.ptx:147 skipping new declaration
GPGPU-Sim PTX: Warning %r8 was declared previous at backprop-rodinia-3.1.sm_30.ptx:147 skipping new declaration
GPGPU-Sim PTX: Warning %r9 was declared previous at backprop-rodinia-3.1.sm_30.ptx:147 skipping new declaration
GPGPU-Sim PTX: Warning %r10 was declared previous at backprop-rodinia-3.1.sm_30.ptx:147 skipping new declaration
GPGPU-Sim PTX: Warning %r11 was declared previous at backprop-rodinia-3.1.sm_30.ptx:147 skipping new declaration
GPGPU-Sim PTX: Warning %fd0 was declared previous at backprop-rodinia-3.1.sm_30.ptx:148 skipping new declaration
GPGPU-Sim PTX: Warning %fd1 was declared previous at backprop-rodinia-3.1.sm_30.ptx:148 skipping new declaration
GPGPU-Sim PTX: Warning %fd2 was declared previous at backprop-rodinia-3.1.sm_30.ptx:148 skipping new declaration
GPGPU-Sim PTX: Warning %fd3 was declared previous at backprop-rodinia-3.1.sm_30.ptx:148 skipping new declaration
GPGPU-Sim PTX: Warning %fd4 was declared previous at backprop-rodinia-3.1.sm_30.ptx:148 skipping new declaration
GPGPU-Sim PTX: Warning %fd5 was declared previous at backprop-rodinia-3.1.sm_30.ptx:148 skipping new declaration
GPGPU-Sim PTX: Warning %fd6 was declared previous at backprop-rodinia-3.1.sm_30.ptx:148 skipping new declaration
GPGPU-Sim PTX: Warning %fd7 was declared previous at backprop-rodinia-3.1.sm_30.ptx:148 skipping new declaration
GPGPU-Sim PTX: Warning %fd8 was declared previous at backprop-rodinia-3.1.sm_30.ptx:148 skipping new declaration
GPGPU-Sim PTX: Warning %fd9 was declared previous at backprop-rodinia-3.1.sm_30.ptx:148 skipping new declaration
GPGPU-Sim PTX: Warning %fd10 was declared previous at backprop-rodinia-3.1.sm_30.ptx:148 skipping new declaration
GPGPU-Sim PTX: Warning %fd11 was declared previous at backprop-rodinia-3.1.sm_30.ptx:148 skipping new declaration
GPGPU-Sim PTX: Warning %fd12 was declared previous at backprop-rodinia-3.1.sm_30.ptx:148 skipping new declaration
GPGPU-Sim PTX: Warning %fd13 was declared previous at backprop-rodinia-3.1.sm_30.ptx:148 skipping new declaration
GPGPU-Sim PTX: Warning %fd14 was declared previous at backprop-rodinia-3.1.sm_30.ptx:148 skipping new declaration
GPGPU-Sim PTX: Warning %fd15 was declared previous at backprop-rodinia-3.1.sm_30.ptx:148 skipping new declaration
GPGPU-Sim PTX: Warning %fd16 was declared previous at backprop-rodinia-3.1.sm_30.ptx:148 skipping new declaration
GPGPU-Sim PTX: Warning %fd17 was declared previous at backprop-rodinia-3.1.sm_30.ptx:148 skipping new declaration
GPGPU-Sim PTX: Warning %fd18 was declared previous at backprop-rodinia-3.1.sm_30.ptx:148 skipping new declaration
GPGPU-Sim PTX: Warning %fd19 was declared previous at backprop-rodinia-3.1.sm_30.ptx:148 skipping new declaration
GPGPU-Sim PTX: Warning %fd20 was declared previous at backprop-rodinia-3.1.sm_30.ptx:148 skipping new declaration
GPGPU-Sim PTX: Warning %fd21 was declared previous at backprop-rodinia-3.1.sm_30.ptx:148 skipping new declaration
GPGPU-Sim PTX: Warning %fd22 was declared previous at backprop-rodinia-3.1.sm_30.ptx:148 skipping new declaration
GPGPU-Sim PTX: Warning %fd23 was declared previous at backprop-rodinia-3.1.sm_30.ptx:148 skipping new declaration
GPGPU-Sim PTX: Warning %fd24 was declared previous at backprop-rodinia-3.1.sm_30.ptx:148 skipping new declaration
GPGPU-Sim PTX: Warning %rd0 was declared previous at backprop-rodinia-3.1.sm_30.ptx:149 skipping new declaration
GPGPU-Sim PTX: Warning %rd1 was declared previous at backprop-rodinia-3.1.sm_30.ptx:149 skipping new declaration
GPGPU-Sim PTX: Warning %rd2 was declared previous at backprop-rodinia-3.1.sm_30.ptx:149 skipping new declaration
GPGPU-Sim PTX: Warning %rd3 was declared previous at backprop-rodinia-3.1.sm_30.ptx:149 skipping new declaration
GPGPU-Sim PTX: Warning %rd4 was declared previous at backprop-rodinia-3.1.sm_30.ptx:149 skipping new declaration
GPGPU-Sim PTX: Warning %rd5 was declared previous at backprop-rodinia-3.1.sm_30.ptx:149 skipping new declaration
GPGPU-Sim PTX: Warning %rd6 was declared previous at backprop-rodinia-3.1.sm_30.ptx:149 skipping new declaration
GPGPU-Sim PTX: Warning %rd7 was declared previous at backprop-rodinia-3.1.sm_30.ptx:149 skipping new declaration
GPGPU-Sim PTX: Warning %rd8 was declared previous at backprop-rodinia-3.1.sm_30.ptx:149 skipping new declaration
GPGPU-Sim PTX: Warning %rd9 was declared previous at backprop-rodinia-3.1.sm_30.ptx:149 skipping new declaration
GPGPU-Sim PTX: Warning %rd10 was declared previous at backprop-rodinia-3.1.sm_30.ptx:149 skipping new declaration
[...]
n_cmd=38392 n_nop=28152 n_act=348 n_pre=332 n_ref_event=0 n_req=8049 n_rd=7371 n_rd_L2_A=0 n_write=0 n_wr_bk=2712 bw_util=0.2626
n_activity=13247 dram_eff=0.7612
bk0: 515a 34119i bk1: 512a 33608i bk2: 512a 34463i bk3: 512a 33948i bk4: 448a 34133i bk5: 448a 34508i bk6: 448a 33834i bk7: 448a 34265i bk8: 384a 34310i bk9: 384a 34841i bk10: 400a 35218i bk11: 396a 34517i bk12: 484a 33520i bk13: 460a 34045i bk14: 508a 34000i bk15: 512a 34041i 

------------------------------------------------------------------------

Row_Buffer_Locality = 0.956765
Row_Buffer_Locality_read = 0.972053
Row_Buffer_Locality_write = 0.790560
Bank_Level_Parallism = 6.083191
Bank_Level_Parallism_Col = 5.693532
Bank_Level_Parallism_Ready = 2.476346
write_to_read_ratio_blp_rw_average = 0.344230
GrpLevelPara = 2.826451 

BW Util details:
bwutil = 0.262633 
total_CMD = 38392 
util_bw = 10083 
Wasted_Col = 1997 
Wasted_Row = 241 
Idle = 26071 

BW Util Bottlenecks: 
RCDc_limit = 692 
RCDWRc_limit = 162 
WTRc_limit = 1028 
RTWc_limit = 4837 
CCDLc_limit = 2123 
rwq = 0 
CCDLc_limit_alone = 1489 
WTRc_limit_alone = 917 
RTWc_limit_alone = 4314 

Commands details: 
total_CMD = 38392 
n_nop = 28152 
Read = 7371 
Write = 0 
L2_Alloc = 0 
L2_WB = 2712 
n_act = 348 
n_pre = 332 
n_ref = 0 
n_req = 8049 
total_req = 10083 

Dual Bus Interface Util: 
issued_total_row = 680 
issued_total_col = 10083 
Row_Bus_Util =  0.017712 
CoL_Bus_Util = 0.262633 
Either_Row_CoL_Bus_Util = 0.266722 
Issued_on_Two_Bus_Simul_Util = 0.013623 
issued_two_Eff = 0.051074 
queue_avg = 10.948271 


dram_util_bins: 0 0 0 0 0 0 0 0 0 0
dram_eff_bins: 0 0 0 0 0 0 0 0 0 0
mrqq: max=64 avg=10.9483
Memory Partition 29: 
Cache L2_bank_058:
MSHR contents

Cache L2_bank_059:
MSHR contents

In Dram Latency Queue (total = 0): 
DRAM[29]: 16 bks, busW=16 BL=2 CL=12, tRRD=3 tCCD=1, tRCD=12 tRAS=28 tRP=12 tRC=40
n_cmd=38392 n_nop=28168 n_act=353 n_pre=337 n_ref_event=0 n_req=8052 n_rd=7376 n_rd_L2_A=0 n_write=0 n_wr_bk=2704 bw_util=0.2626
n_activity=13337 dram_eff=0.7558
bk0: 512a 33724i bk1: 512a 34259i bk2: 512a 34655i bk3: 512a 33996i bk4: 448a 33941i bk5: 448a 34286i bk6: 448a 33912i bk7: 448a 34541i bk8: 384a 34476i bk9: 384a 34805i bk10: 400a 35322i bk11: 404a 34679i bk12: 484a 33832i bk13: 456a 34061i bk14: 512a 33710i bk15: 512a 34009i 

------------------------------------------------------------------------

Row_Buffer_Locality = 0.956160
Row_Buffer_Locality_read = 0.973427
Row_Buffer_Locality_write = 0.767751
Bank_Level_Parallism = 6.006646
Bank_Level_Parallism_Col = 5.641623
Bank_Level_Parallism_Ready = 2.488393
write_to_read_ratio_blp_rw_average = 0.350782
GrpLevelPara = 2.844332 

BW Util details:
bwutil = 0.262555 
total_CMD = 38392 
util_bw = 10080 
Wasted_Col = 1982 
Wasted_Row = 277 
Idle = 26053 

BW Util Bottlenecks: 
RCDc_limit = 591 
RCDWRc_limit = 247 
WTRc_limit = 1398 
RTWc_limit = 4375 
CCDLc_limit = 2244 
rwq = 0 
CCDLc_limit_alone = 1578 
WTRc_limit_alone = 1192 
RTWc_limit_alone = 3915 

Commands details: 
total_CMD = 38392 
n_nop = 28168 
Read = 7376 
Write = 0 
L2_Alloc = 0 
L2_WB = 2704 
n_act = 353 
n_pre = 337 
n_ref = 0 
n_req = 8052 
total_req = 10080 

Dual Bus Interface Util: 
issued_total_row = 690 
issued_total_col = 10080 
Row_Bus_Util =  0.017972 
CoL_Bus_Util = 0.262555 
Either_Row_CoL_Bus_Util = 0.266305 
Issued_on_Two_Bus_Simul_Util = 0.014222 
issued_two_Eff = 0.053404 
queue_avg = 10.899041 


dram_util_bins: 0 0 0 0 0 0 0 0 0 0
dram_eff_bins: 0 0 0 0 0 0 0 0 0 0
mrqq: max=64 avg=10.899
Memory Partition 30: 
Cache L2_bank_060:
MSHR contents

Cache L2_bank_061:
MSHR contents

In Dram Latency Queue (total = 0): 
DRAM[30]: 16 bks, busW=16 BL=2 CL=12, tRRD=3 tCCD=1, tRCD=12 tRAS=28 tRP=12 tRC=40
n_cmd=38392 n_nop=28191 n_act=322 n_pre=306 n_ref_event=0 n_req=8033 n_rd=7356 n_rd_L2_A=0 n_write=0 n_wr_bk=2708 bw_util=0.2621
n_activity=13322 dram_eff=0.7554
bk0: 512a 34522i bk1: 512a 33852i bk2: 512a 34519i bk3: 512a 34791i bk4: 448a 34249i bk5: 448a 34071i bk6: 448a 34238i bk7: 448a 34071i bk8: 384a 34567i bk9: 384a 34686i bk10: 388a 34639i bk11: 408a 34723i bk12: 456a 33073i bk13: 472a 33696i bk14: 512a 34077i bk15: 512a 33503i 

------------------------------------------------------------------------

Row_Buffer_Locality = 0.959915
Row_Buffer_Locality_read = 0.974307
Row_Buffer_Locality_write = 0.803545
Bank_Level_Parallism = 6.126235
Bank_Level_Parallism_Col = 5.791527
Bank_Level_Parallism_Ready = 2.461049
write_to_read_ratio_blp_rw_average = 0.358980
GrpLevelPara = 2.922472 

BW Util details:
bwutil = 0.262138 
total_CMD = 38392 
util_bw = 10064 
Wasted_Col = 1902 
Wasted_Row = 281 
Idle = 26145 

BW Util Bottlenecks: 
RCDc_limit = 601 
RCDWRc_limit = 222 
WTRc_limit = 1188 
RTWc_limit = 5593 
CCDLc_limit = 2352 
rwq = 0 
CCDLc_limit_alone = 1434 
WTRc_limit_alone = 958 
RTWc_limit_alone = 4905 

Commands details: 
total_CMD = 38392 
n_nop = 28191 
Read = 7356 
Write = 0 
L2_Alloc = 0 
L2_WB = 2708 
n_act = 322 
n_pre = 306 
n_ref = 0 
n_req = 8033 
total_req = 10064 

Dual Bus Interface Util: 
issued_total_row = 628 
issued_total_col = 10064 
Row_Bus_Util =  0.016358 
CoL_Bus_Util = 0.262138 
Either_Row_CoL_Bus_Util = 0.265706 
Issued_on_Two_Bus_Simul_Util = 0.012789 
issued_two_Eff = 0.048133 
queue_avg = 11.417795 


dram_util_bins: 0 0 0 0 0 0 0 0 0 0
dram_eff_bins: 0 0 0 0 0 0 0 0 0 0
mrqq: max=64 avg=11.4178
Memory Partition 31: 
Cache L2_bank_062:
MSHR contents

Cache L2_bank_063:
MSHR contents

In Dram Latency Queue (total = 0): 
DRAM[31]: 16 bks, busW=16 BL=2 CL=12, tRRD=3 tCCD=1, tRCD=12 tRAS=28 tRP=12 tRC=40
n_cmd=38392 n_nop=28183 n_act=335 n_pre=319 n_ref_event=0 n_req=8048 n_rd=7372 n_rd_L2_A=0 n_write=0 n_wr_bk=2704 bw_util=0.2625
n_activity=13170 dram_eff=0.7651
bk0: 512a 34231i bk1: 512a 33508i bk2: 512a 34659i bk3: 512a 34337i bk4: 448a 34450i bk5: 448a 34167i bk6: 448a 34346i bk7: 448a 33942i bk8: 384a 35121i bk9: 384a 34408i bk10: 404a 35252i bk11: 400a 34603i bk12: 468a 33691i bk13: 468a 33715i bk14: 512a 34080i bk15: 512a 33709i 

------------------------------------------------------------------------

Row_Buffer_Locality = 0.958375
Row_Buffer_Locality_read = 0.973413
Row_Buffer_Locality_write = 0.794379
Bank_Level_Parallism = 6.023982
Bank_Level_Parallism_Col = 5.618705
Bank_Level_Parallism_Ready = 2.451766
write_to_read_ratio_blp_rw_average = 0.351788
GrpLevelPara = 2.853800 

BW Util details:
bwutil = 0.262451 
total_CMD = 38392 
util_bw = 10076 
Wasted_Col = 2041 
Wasted_Row = 184 
Idle = 26091 

BW Util Bottlenecks: 
RCDc_limit = 697 
RCDWRc_limit = 192 
WTRc_limit = 967 
RTWc_limit = 5416 
CCDLc_limit = 2334 
rwq = 0 
CCDLc_limit_alone = 1625 
WTRc_limit_alone = 830 
RTWc_limit_alone = 4844 

Commands details: 
total_CMD = 38392 
n_nop = 28183 
Read = 7372 
Write = 0 
L2_Alloc = 0 
L2_WB = 2704 
n_act = 335 
n_pre = 319 
n_ref = 0 
n_req = 8048 
total_req = 10076 

Dual Bus Interface Util: 
issued_total_row = 654 
issued_total_col = 10076 
Row_Bus_Util =  0.017035 
CoL_Bus_Util = 0.262451 
Either_Row_CoL_Bus_Util = 0.265915 
Issued_on_Two_Bus_Simul_Util = 0.013571 
issued_two_Eff = 0.051033 
queue_avg = 11.236221 


dram_util_bins: 0 0 0 0 0 0 0 0 0 0
dram_eff_bins: 0 0 0 0 0 0 0 0 0 0
mrqq: max=64 avg=11.2362

========= L2 cache stats =========
L2_cache_bank[0]: Access = 15399, Miss = 4176, Miss_rate = 0.271, Pending_hits = 143, Reservation_fails = 0
L2_cache_bank[1]: Access = 15438, Miss = 4216, Miss_rate = 0.273, Pending_hits = 135, Reservation_fails = 0
L2_cache_bank[2]: Access = 15410, Miss = 4188, Miss_rate = 0.272, Pending_hits = 143, Reservation_fails = 0
L2_cache_bank[3]: Access = 15397, Miss = 4200, Miss_rate = 0.273, Pending_hits = 129, Reservation_fails = 0
L2_cache_bank[4]: Access = 15386, Miss = 4200, Miss_rate = 0.273, Pending_hits = 136, Reservation_fails = 0
L2_cache_bank[5]: Access = 15381, Miss = 4212, Miss_rate = 0.274, Pending_hits = 118, Reservation_fails = 0
L2_cache_bank[6]: Access = 15402, Miss = 4196, Miss_rate = 0.272, Pending_hits = 139, Reservation_fails = 0
L2_cache_bank[7]: Access = 15439, Miss = 4220, Miss_rate = 0.273, Pending_hits = 143, Reservation_fails = 0
L2_cache_bank[8]: Access = 15403, Miss = 4208, Miss_rate = 0.273, Pending_hits = 127, Reservation_fails = 0
L2_cache_bank[9]: Access = 15438, Miss = 4192, Miss_rate = 0.272, Pending_hits = 134, Reservation_fails = 0
L2_cache_bank[10]: Access = 15445, Miss = 4196, Miss_rate = 0.272, Pending_hits = 139, Reservation_fails = 0
L2_cache_bank[11]: Access = 15382, Miss = 4220, Miss_rate = 0.274, Pending_hits = 126, Reservation_fails = 0
L2_cache_bank[12]: Access = 15419, Miss = 4216, Miss_rate = 0.273, Pending_hits = 138, Reservation_fails = 0
L2_cache_bank[13]: Access = 15404, Miss = 4204, Miss_rate = 0.273, Pending_hits = 121, Reservation_fails = 0
L2_cache_bank[14]: Access = 15398, Miss = 4212, Miss_rate = 0.274, Pending_hits = 116, Reservation_fails = 0
L2_cache_bank[15]: Access = 15404, Miss = 4212, Miss_rate = 0.273, Pending_hits = 145, Reservation_fails = 0
L2_cache_bank[16]: Access = 15413, Miss = 4220, Miss_rate = 0.274, Pending_hits = 149, Reservation_fails = 0
L2_cache_bank[17]: Access = 15427, Miss = 4216, Miss_rate = 0.273, Pending_hits = 128, Reservation_fails = 0
L2_cache_bank[18]: Access = 15389, Miss = 4196, Miss_rate = 0.273, Pending_hits = 134, Reservation_fails = 0
L2_cache_bank[19]: Access = 15433, Miss = 4216, Miss_rate = 0.273, Pending_hits = 131, Reservation_fails = 0
L2_cache_bank[20]: Access = 15405, Miss = 4200, Miss_rate = 0.273, Pending_hits = 122, Reservation_fails = 0
L2_cache_bank[21]: Access = 15430, Miss = 4208, Miss_rate = 0.273, Pending_hits = 147, Reservation_fails = 0
L2_cache_bank[22]: Access = 15405, Miss = 4204, Miss_rate = 0.273, Pending_hits = 148, Reservation_fails = 0
L2_cache_bank[23]: Access = 15399, Miss = 4208, Miss_rate = 0.273, Pending_hits = 136, Reservation_fails = 0
L2_cache_bank[24]: Access = 15416, Miss = 4200, Miss_rate = 0.272, Pending_hits = 129, Reservation_fails = 0
L2_cache_bank[25]: Access = 15400, Miss = 4232, Miss_rate = 0.275, Pending_hits = 142, Reservation_fails = 0
L2_cache_bank[26]: Access = 15446, Miss = 4212, Miss_rate = 0.273, Pending_hits = 132, Reservation_fails = 0
L2_cache_bank[27]: Access = 15445, Miss = 4228, Miss_rate = 0.274, Pending_hits = 136, Reservation_fails = 0
L2_cache_bank[28]: Access = 15412, Miss = 4188, Miss_rate = 0.272, Pending_hits = 132, Reservation_fails = 0
L2_cache_bank[29]: Access = 15602, Miss = 4207, Miss_rate = 0.270, Pending_hits = 142, Reservation_fails = 157
L2_cache_bank[30]: Access = 15412, Miss = 4192, Miss_rate = 0.272, Pending_hits = 140, Reservation_fails = 0
L2_cache_bank[31]: Access = 15396, Miss = 4220, Miss_rate = 0.274, Pending_hits = 130, Reservation_fails = 0
L2_cache_bank[32]: Access = 15404, Miss = 4196, Miss_rate = 0.272, Pending_hits = 134, Reservation_fails = 0
L2_cache_bank[33]: Access = 15401, Miss = 4200, Miss_rate = 0.273, Pending_hits = 138, Reservation_fails = 0
L2_cache_bank[34]: Access = 15428, Miss = 4188, Miss_rate = 0.271, Pending_hits = 136, Reservation_fails = 0
L2_cache_bank[35]: Access = 15413, Miss = 4200, Miss_rate = 0.272, Pending_hits = 133, Reservation_fails = 0
L2_cache_bank[36]: Access = 15423, Miss = 4192, Miss_rate = 0.272, Pending_hits = 139, Reservation_fails = 0
L2_cache_bank[37]: Access = 15398, Miss = 4196, Miss_rate = 0.273, Pending_hits = 126, Reservation_fails = 0
L2_cache_bank[38]: Access = 15422, Miss = 4176, Miss_rate = 0.271, Pending_hits = 134, Reservation_fails = 0
L2_cache_bank[39]: Access = 15408, Miss = 4192, Miss_rate = 0.272, Pending_hits = 123, Reservation_fails = 0
L2_cache_bank[40]: Access = 15397, Miss = 4188, Miss_rate = 0.272, Pending_hits = 139, Reservation_fails = 0
L2_cache_bank[41]: Access = 15428, Miss = 4192, Miss_rate = 0.272, Pending_hits = 127, Reservation_fails = 0
L2_cache_bank[42]: Access = 15394, Miss = 4192, Miss_rate = 0.272, Pending_hits = 143, Reservation_fails = 0
L2_cache_bank[43]: Access = 15414, Miss = 4188, Miss_rate = 0.272, Pending_hits = 129, Reservation_fails = 0
L2_cache_bank[44]: Access = 15370, Miss = 4185, Miss_rate = 0.272, Pending_hits = 123, Reservation_fails = 0
L2_cache_bank[45]: Access = 15398, Miss = 4220, Miss_rate = 0.274, Pending_hits = 139, Reservation_fails = 0
L2_cache_bank[46]: Access = 15383, Miss = 4180, Miss_rate = 0.272, Pending_hits = 137, Reservation_fails = 0
L2_cache_bank[47]: Access = 15418, Miss = 4183, Miss_rate = 0.271, Pending_hits = 137, Reservation_fails = 0
L2_cache_bank[48]: Access = 15403, Miss = 4192, Miss_rate = 0.272, Pending_hits = 148, Reservation_fails = 0
L2_cache_bank[49]: Access = 15435, Miss = 4204, Miss_rate = 0.272, Pending_hits = 132, Reservation_fails = 0
L2_cache_bank[50]: Access = 15433, Miss = 4200, Miss_rate = 0.272, Pending_hits = 131, Reservation_fails = 0
L2_cache_bank[51]: Access = 15433, Miss = 4188, Miss_rate = 0.271, Pending_hits = 141, Reservation_fails = 0
L2_cache_bank[52]: Access = 15413, Miss = 4196, Miss_rate = 0.272, Pending_hits = 135, Reservation_fails = 0
L2_cache_bank[53]: Access = 15397, Miss = 4204, Miss_rate = 0.273, Pending_hits = 127, Reservation_fails = 0
L2_cache_bank[54]: Access = 15416, Miss = 4196, Miss_rate = 0.272, Pending_hits = 142, Reservation_fails = 0
L2_cache_bank[55]: Access = 15441, Miss = 4220, Miss_rate = 0.273, Pending_hits = 125, Reservation_fails = 0
L2_cache_bank[56]: Access = 15400, Miss = 4212, Miss_rate = 0.274, Pending_hits = 132, Reservation_fails = 0
L2_cache_bank[57]: Access = 15448, Miss = 4183, Miss_rate = 0.271, Pending_hits = 140, Reservation_fails = 0
L2_cache_bank[58]: Access = 15422, Miss = 4204, Miss_rate = 0.273, Pending_hits = 135, Reservation_fails = 0
L2_cache_bank[59]: Access = 15382, Miss = 4196, Miss_rate = 0.273, Pending_hits = 134, Reservation_fails = 0
L2_cache_bank[60]: Access = 15409, Miss = 4204, Miss_rate = 0.273, Pending_hits = 135, Reservation_fails = 0
L2_cache_bank[61]: Access = 15410, Miss = 4176, Miss_rate = 0.271, Pending_hits = 128, Reservation_fails = 0
L2_cache_bank[62]: Access = 15400, Miss = 4204, Miss_rate = 0.273, Pending_hits = 141, Reservation_fails = 0
L2_cache_bank[63]: Access = 15414, Miss = 4192, Miss_rate = 0.272, Pending_hits = 141, Reservation_fails = 0
L2_total_cache_accesses = 986530
L2_total_cache_misses = 268854
L2_total_cache_miss_rate = 0.2725
L2_total_cache_pending_hits = 8614
L2_total_cache_reservation_fails = 157
L2_total_cache_breakdown:
	L2_cache_stats_breakdown[GLOBAL_ACC_R][HIT] = 217536
	L2_cache_stats_breakdown[GLOBAL_ACC_R][HIT_RESERVED] = 8614
	L2_cache_stats_breakdown[GLOBAL_ACC_R][MISS] = 59023
	L2_cache_stats_breakdown[GLOBAL_ACC_R][RESERVATION_FAIL] = 157
	L2_cache_stats_breakdown[GLOBAL_ACC_R][SECTOR_MISS] = 177063
	L2_cache_stats_breakdown[GLOBAL_ACC_R][MSHR_HIT] = 8614
	L2_cache_stats_breakdown[LOCAL_ACC_R][HIT] = 0
	L2_cache_stats_breakdown[LOCAL_ACC_R][HIT_RESERVED] = 0
	L2_cache_stats_breakdown[LOCAL_ACC_R][MISS] = 0
	L2_cache_stats_breakdown[LOCAL_ACC_R][RESERVATION_FAIL] = 0
	L2_cache_stats_breakdown[LOCAL_ACC_R][SECTOR_MISS] = 0
	L2_cache_stats_breakdown[LOCAL_ACC_R][MSHR_HIT] = 0
	L2_cache_stats_breakdown[CONST_ACC_R][HIT] = 0
	L2_cache_stats_breakdown[CONST_ACC_R][HIT_RESERVED] = 0
	L2_cache_stats_breakdown[CONST_ACC_R][MISS] = 0
	L2_cache_stats_breakdown[CONST_ACC_R][RESERVATION_FAIL] = 0
	L2_cache_stats_breakdown[CONST_ACC_R][SECTOR_MISS] = 0
	L2_cache_stats_breakdown[CONST_ACC_R][MSHR_HIT] = 0
	L2_cache_stats_breakdown[TEXTURE_ACC_R][HIT] = 0
	L2_cache_stats_breakdown[TEXTURE_ACC_R][HIT_RESERVED] = 0
	L2_cache_stats_breakdown[TEXTURE_ACC_R][MISS] = 0
	L2_cache_stats_breakdown[TEXTURE_ACC_R][RESERVATION_FAIL] = 0
	L2_cache_stats_breakdown[TEXTURE_ACC_R][SECTOR_MISS] = 0
	L2_cache_stats_breakdown[TEXTURE_ACC_R][MSHR_HIT] = 0
	L2_cache_stats_breakdown[GLOBAL_ACC_W][HIT] = 491526
	L2_cache_stats_breakdown[GLOBAL_ACC_W][HIT_RESERVED] = 0
	L2_cache_stats_breakdown[GLOBAL_ACC_W][MISS] = 2048
	L2_cache_stats_breakdown[GLOBAL_ACC_W][RESERVATION_FAIL] = 0
	L2_cache_stats_breakdown[GLOBAL_ACC_W][SECTOR_MISS] = 30720
	L2_cache_stats_breakdown[GLOBAL_ACC_W][MSHR_HIT] = 0
	L2_cache_stats_breakdown[LOCAL_ACC_W][HIT] = 0
	L2_cache_stats_breakdown[LOCAL_ACC_W][HIT_RESERVED] = 0
	L2_cache_stats_breakdown[LOCAL_ACC_W][MISS] = 0
	L2_cache_stats_breakdown[LOCAL_ACC_W][RESERVATION_FAIL] = 0
	L2_cache_stats_breakdown[LOCAL_ACC_W][SECTOR_MISS] = 0
	L2_cache_stats_breakdown[LOCAL_ACC_W][MSHR_HIT] = 0
	L2_cache_stats_breakdown[L1_WRBK_ACC][HIT] = 0
	L2_cache_stats_breakdown[L1_WRBK_ACC][HIT_RESERVED] = 0
	L2_cache_stats_breakdown[L1_WRBK_ACC][MISS] = 0
	L2_cache_stats_breakdown[L1_WRBK_ACC][RESERVATION_FAIL] = 0
	L2_cache_stats_breakdown[L1_WRBK_ACC][SECTOR_MISS] = 0
	L2_cache_stats_breakdown[L1_WRBK_ACC][MSHR_HIT] = 0
	L2_cache_stats_breakdown[L2_WRBK_ACC][HIT] = 0
	L2_cache_stats_breakdown[L2_WRBK_ACC][HIT_RESERVED] = 0
	L2_cache_stats_breakdown[L2_WRBK_ACC][MISS] = 0
	L2_cache_stats_breakdown[L2_WRBK_ACC][RESERVATION_FAIL] = 0
	L2_cache_stats_breakdown[L2_WRBK_ACC][SECTOR_MISS] = 0
	L2_cache_stats_breakdown[L2_WRBK_ACC][MSHR_HIT] = 0
	L2_cache_stats_breakdown[INST_ACC_R][HIT] = 0
	L2_cache_stats_breakdown[INST_ACC_R][HIT_RESERVED] = 0
	L2_cache_stats_breakdown[INST_ACC_R][MISS] = 0
	L2_cache_stats_breakdown[INST_ACC_R][RESERVATION_FAIL] = 0
	L2_cache_stats_breakdown[INST_ACC_R][SECTOR_MISS] = 0
	L2_cache_stats_breakdown[INST_ACC_R][MSHR_HIT] = 0
	L2_cache_stats_breakdown[L1_WR_ALLOC_R][HIT] = 0
	L2_cache_stats_breakdown[L1_WR_ALLOC_R][HIT_RESERVED] = 0
	L2_cache_stats_breakdown[L1_WR_ALLOC_R][MISS] = 0
	L2_cache_stats_breakdown[L1_WR_ALLOC_R][RESERVATION_FAIL] = 0
	L2_cache_stats_breakdown[L1_WR_ALLOC_R][SECTOR_MISS] = 0
	L2_cache_stats_breakdown[L1_WR_ALLOC_R][MSHR_HIT] = 0
	L2_cache_stats_breakdown[L2_WR_ALLOC_R][HIT] = 0
	L2_cache_stats_breakdown[L2_WR_ALLOC_R][HIT_RESERVED] = 0
	L2_cache_stats_breakdown[L2_WR_ALLOC_R][MISS] = 0
	L2_cache_stats_breakdown[L2_WR_ALLOC_R][RESERVATION_FAIL] = 0
	L2_cache_stats_breakdown[L2_WR_ALLOC_R][SECTOR_MISS] = 0
	L2_cache_stats_breakdown[L2_WR_ALLOC_R][MSHR_HIT] = 0
	L2_cache_stats_breakdown[GLOBAL_ACC_R][TOTAL_ACCESS] = 470850
	L2_cache_stats_breakdown[GLOBAL_ACC_W][TOTAL_ACCESS] = 524294
L2_total_cache_reservation_fail_breakdown:
	L2_cache_stats_fail_breakdown[GLOBAL_ACC_R][MSHR_MERGE_ENRTY_FAIL] = 157
L2_cache_data_port_util = 0.217
L2_cache_fill_port_util = 0.072

icnt_total_pkts_mem_to_simt=986530
icnt_total_pkts_simt_to_mem=986530
LD_mem_lat_dist  0 0 0 0 0 0 0 0 0 0 0 0 0 0 0 0 0 0 0 0 0 0 0 0 0 0 0
ST_mem_lat_dist  0 0 0 0 0 0 0 0 0 0 0 0 0 0 0 0 0 0 0 0 0 0 0 0 0 0 0
----------------------------Interconnect-DETAILS--------------------------------
Req_Network_injected_packets_num = 986530
Req_Network_cycles = 51130
Req_Network_injected_packets_per_cycle =      19.2945 
Req_Network_conflicts_per_cycle =      12.9736
Req_Network_conflicts_per_cycle_util =      17.2188
Req_Bank_Level_Parallism =      25.6082
Req_Network_in_buffer_full_per_cycle =       0.0000
Req_Network_in_buffer_avg_util =      17.3665
Req_Network_out_buffer_full_per_cycle =       0.0000
Req_Network_out_buffer_avg_util =       2.6020

Reply_Network_injected_packets_num = 986530
Reply_Network_cycles = 51130
Reply_Network_injected_packets_per_cycle =       19.2945
Reply_Network_conflicts_per_cycle =        9.9101
Reply_Network_conflicts_per_cycle_util =      13.2039
Reply_Bank_Level_Parallism =      25.7076
Reply_Network_in_buffer_full_per_cycle =       0.0000
Reply_Network_in_buffer_avg_util =       6.0307
Reply_Network_out_buffer_full_per_cycle =       0.0000
Reply_Network_out_buffer_avg_util =       0.2412
----------------------------END-of-Interconnect-DETAILS-------------------------


gpgpu_simulation_time = 0 days, 0 hrs, 9 min, 50 sec (590 sec)
gpgpu_simulation_rate = 273807 (inst/sec)
gpgpu_simulation_rate = 86 (cycle/sec)
gpgpu_silicon_slowdown = 13162790x
Training done
GPGPU-Sim: *** exit detected ***
